*
* WL | Delft Hydraulics, Delft3D-RGFGRID, Version 4.13.02.00; Oct 2005
* File creation date: 11:28:45, 25-11-2005
*
Coordinate System = Cartesian
       9       4
 0 0 0
 ETA=    1   0.00000000000000000E+00   4.50000000000000000E+02   9.00000000000000000E+02   1.35000000000000000E+03   1.80000000000000000E+03
             2.25000000000000000E+03   2.70000000000000000E+03   3.15000000000000000E+03   3.60000000000000000E+03
 ETA=    2   0.00000000000000000E+00   4.50000000000000000E+02   9.00000000000000000E+02   1.35000000000000000E+03   1.80000000000000000E+03
             2.25000000000000000E+03   2.70000000000000000E+03   3.15000000000000000E+03   3.60000000000000000E+03
 ETA=    3   0.00000000000000000E+00   4.50000000000000000E+02   9.00000000000000000E+02   1.35000000000000000E+03   1.80000000000000000E+03
             2.25000000000000000E+03   2.70000000000000000E+03   3.15000000000000000E+03   3.60000000000000000E+03
 ETA=    4   0.00000000000000000E+00   4.50000000000000000E+02   9.00000000000000000E+02   1.35000000000000000E+03   1.80000000000000000E+03
             2.25000000000000000E+03   2.70000000000000000E+03   3.15000000000000000E+03   3.60000000000000000E+03
 ETA=    1   1.00000000000000000E+03   1.00000000000000000E+03   1.00000000000000000E+03   1.00000000000000000E+03   1.00000000000000000E+03
             1.00000000000000000E+03   1.00000000000000000E+03   1.00000000000000000E+03   1.00000000000000000E+03
 ETA=    2   1.45000000000000000E+03   1.45000000000000000E+03   1.45000000000000000E+03   1.45000000000000000E+03   1.45000000000000000E+03
             1.45000000000000000E+03   1.45000000000000000E+03   1.45000000000000000E+03   1.45000000000000000E+03
 ETA=    3   1.90000000000000000E+03   1.90000000000000000E+03   1.90000000000000000E+03   1.90000000000000000E+03   1.90000000000000000E+03
             1.90000000000000000E+03   1.90000000000000000E+03   1.90000000000000000E+03   1.90000000000000000E+03
 ETA=    4   2.35000000000000000E+03   2.35000000000000000E+03   2.35000000000000000E+03   2.35000000000000000E+03   2.35000000000000000E+03
             2.35000000000000000E+03   2.35000000000000000E+03   2.35000000000000000E+03   2.35000000000000000E+03
