*
* WL | Delft Hydraulics, Delft3D-RGFGRID, Version 4.13.01.06; Oct 2005
* File creation date: 11:24:43, 26-10-2005
*
Coordinate System = Cartesian
     150     150
 0 0 0
 ETA=    1   1.00000000000000000E+00   1.01000000000000000E+02   2.01000000000000000E+02   3.01000000000000000E+02   4.01000000000000000E+02
             5.01000000000000000E+02   6.01000000000000000E+02   7.01000000000000000E+02   8.01000000000000000E+02   9.01000000000000000E+02
             1.00100000000000000E+03   1.10100000000000000E+03   1.20100000000000000E+03   1.30100000000000000E+03   1.40100000000000000E+03
             1.50100000000000000E+03   1.60100000000000000E+03   1.70100000000000000E+03   1.80100000000000000E+03   1.90100000000000000E+03
             2.00100000000000000E+03   2.10100000000000000E+03   2.20100000000000000E+03   2.30100000000000000E+03   2.40100000000000000E+03
             2.50100000000000000E+03   2.60100000000000000E+03   2.70100000000000000E+03   2.80100000000000000E+03   2.90100000000000000E+03
             3.00100000000000000E+03   3.10100000000000000E+03   3.20100000000000000E+03   3.30100000000000000E+03   3.40100000000000000E+03
             3.50100000000000000E+03   3.60100000000000000E+03   3.70100000000000000E+03   3.80100000000000000E+03   3.90100000000000000E+03
             4.00100000000000000E+03   4.10100000000000000E+03   4.20100000000000000E+03   4.30100000000000000E+03   4.40100000000000000E+03
             4.50100000000000000E+03   4.60100000000000000E+03   4.70100000000000000E+03   4.80100000000000000E+03   4.90100000000000000E+03
             5.00100000000000000E+03   5.10100000000000000E+03   5.20100000000000000E+03   5.30100000000000000E+03   5.40100000000000000E+03
             5.50100000000000000E+03   5.60100000000000000E+03   5.70100000000000000E+03   5.80100000000000000E+03   5.90100000000000000E+03
             6.00100000000000000E+03   6.10100000000000000E+03   6.20100000000000000E+03   6.30100000000000000E+03   6.40100000000000000E+03
             6.50100000000000000E+03   6.60100000000000000E+03   6.70100000000000000E+03   6.80100000000000000E+03   6.90100000000000000E+03
             7.00100000000000000E+03   7.10100000000000000E+03   7.20100000000000000E+03   7.30100000000000000E+03   7.40100000000000000E+03
             7.50100000000000000E+03   7.60100000000000000E+03   7.70100000000000000E+03   7.80100000000000000E+03   7.90100000000000000E+03
             8.00100000000000000E+03   8.10100000000000000E+03   8.20100000000000000E+03   8.30100000000000000E+03   8.40100000000000000E+03
             8.50100000000000000E+03   8.60100000000000000E+03   8.70100000000000000E+03   8.80100000000000000E+03   8.90100000000000000E+03
             9.00100000000000000E+03   9.10100000000000000E+03   9.20100000000000000E+03   9.30100000000000000E+03   9.40100000000000000E+03
             9.50100000000000000E+03   9.60100000000000000E+03   9.70100000000000000E+03   9.80100000000000000E+03   9.90100000000000000E+03
             1.00010000000000000E+04   1.01010000000000000E+04   1.02010000000000000E+04   1.03010000000000000E+04   1.04010000000000000E+04
             1.05010000000000000E+04   1.06010000000000000E+04   1.07010000000000000E+04   1.08010000000000000E+04   1.09010000000000000E+04
             1.10010000000000000E+04   1.11010000000000000E+04   1.12010000000000000E+04   1.13010000000000000E+04   1.14010000000000000E+04
             1.15010000000000000E+04   1.16010000000000000E+04   1.17010000000000000E+04   1.18010000000000000E+04   1.19010000000000000E+04
             1.20010000000000000E+04   1.21010000000000000E+04   1.22010000000000000E+04   1.23010000000000000E+04   1.24010000000000000E+04
             1.25010000000000000E+04   1.26010000000000000E+04   1.27010000000000000E+04   1.28010000000000000E+04   1.29010000000000000E+04
             1.30010000000000000E+04   1.31010000000000000E+04   1.32010000000000000E+04   1.33010000000000000E+04   1.34010000000000000E+04
             1.35010000000000000E+04   1.36010000000000000E+04   1.37010000000000000E+04   1.38010000000000000E+04   1.39010000000000000E+04
             1.40010000000000000E+04   1.41010000000000000E+04   1.42010000000000000E+04   1.43010000000000000E+04   1.44010000000000000E+04
             1.45010000000000000E+04   1.46010000000000000E+04   1.47010000000000000E+04   1.48010000000000000E+04   1.49010000000000000E+04
 ETA=    2   1.00000000000000000E+00   1.01000000000000000E+02   2.01000000000000000E+02   3.01000000000000000E+02   4.01000000000000000E+02
             5.01000000000000000E+02   6.01000000000000000E+02   7.01000000000000000E+02   8.01000000000000000E+02   9.01000000000000000E+02
             1.00100000000000000E+03   1.10100000000000000E+03   1.20100000000000000E+03   1.30100000000000000E+03   1.40100000000000000E+03
             1.50100000000000000E+03   1.60100000000000000E+03   1.70100000000000000E+03   1.80100000000000000E+03   1.90100000000000000E+03
             2.00100000000000000E+03   2.10100000000000000E+03   2.20100000000000000E+03   2.30100000000000000E+03   2.40100000000000000E+03
             2.50100000000000000E+03   2.60100000000000000E+03   2.70100000000000000E+03   2.80100000000000000E+03   2.90100000000000000E+03
             3.00100000000000000E+03   3.10100000000000000E+03   3.20100000000000000E+03   3.30100000000000000E+03   3.40100000000000000E+03
             3.50100000000000000E+03   3.60100000000000000E+03   3.70100000000000000E+03   3.80100000000000000E+03   3.90100000000000000E+03
             4.00100000000000000E+03   4.10100000000000000E+03   4.20100000000000000E+03   4.30100000000000000E+03   4.40100000000000000E+03
             4.50100000000000000E+03   4.60100000000000000E+03   4.70100000000000000E+03   4.80100000000000000E+03   4.90100000000000000E+03
             5.00100000000000000E+03   5.10100000000000000E+03   5.20100000000000000E+03   5.30100000000000000E+03   5.40100000000000000E+03
             5.50100000000000000E+03   5.60100000000000000E+03   5.70100000000000000E+03   5.80100000000000000E+03   5.90100000000000000E+03
             6.00100000000000000E+03   6.10100000000000000E+03   6.20100000000000000E+03   6.30100000000000000E+03   6.40100000000000000E+03
             6.50100000000000000E+03   6.60100000000000000E+03   6.70100000000000000E+03   6.80100000000000000E+03   6.90100000000000000E+03
             7.00100000000000000E+03   7.10100000000000000E+03   7.20100000000000000E+03   7.30100000000000000E+03   7.40100000000000000E+03
             7.50100000000000000E+03   7.60100000000000000E+03   7.70100000000000000E+03   7.80100000000000000E+03   7.90100000000000000E+03
             8.00100000000000000E+03   8.10100000000000000E+03   8.20100000000000000E+03   8.30100000000000000E+03   8.40100000000000000E+03
             8.50100000000000000E+03   8.60100000000000000E+03   8.70100000000000000E+03   8.80100000000000000E+03   8.90100000000000000E+03
             9.00100000000000000E+03   9.10100000000000000E+03   9.20100000000000000E+03   9.30100000000000000E+03   9.40100000000000000E+03
             9.50100000000000000E+03   9.60100000000000000E+03   9.70100000000000000E+03   9.80100000000000000E+03   9.90100000000000000E+03
             1.00010000000000000E+04   1.01010000000000000E+04   1.02010000000000000E+04   1.03010000000000000E+04   1.04010000000000000E+04
             1.05010000000000000E+04   1.06010000000000000E+04   1.07010000000000000E+04   1.08010000000000000E+04   1.09010000000000000E+04
             1.10010000000000000E+04   1.11010000000000000E+04   1.12010000000000000E+04   1.13010000000000000E+04   1.14010000000000000E+04
             1.15010000000000000E+04   1.16010000000000000E+04   1.17010000000000000E+04   1.18010000000000000E+04   1.19010000000000000E+04
             1.20010000000000000E+04   1.21010000000000000E+04   1.22010000000000000E+04   1.23010000000000000E+04   1.24010000000000000E+04
             1.25010000000000000E+04   1.26010000000000000E+04   1.27010000000000000E+04   1.28010000000000000E+04   1.29010000000000000E+04
             1.30010000000000000E+04   1.31010000000000000E+04   1.32010000000000000E+04   1.33010000000000000E+04   1.34010000000000000E+04
             1.35010000000000000E+04   1.36010000000000000E+04   1.37010000000000000E+04   1.38010000000000000E+04   1.39010000000000000E+04
             1.40010000000000000E+04   1.41010000000000000E+04   1.42010000000000000E+04   1.43010000000000000E+04   1.44010000000000000E+04
             1.45010000000000000E+04   1.46010000000000000E+04   1.47010000000000000E+04   1.48010000000000000E+04   1.49010000000000000E+04
 ETA=    3   1.00000000000000000E+00   1.01000000000000000E+02   2.01000000000000000E+02   3.01000000000000000E+02   4.01000000000000000E+02
             5.01000000000000000E+02   6.01000000000000000E+02   7.01000000000000000E+02   8.01000000000000000E+02   9.01000000000000000E+02
             1.00100000000000000E+03   1.10100000000000000E+03   1.20100000000000000E+03   1.30100000000000000E+03   1.40100000000000000E+03
             1.50100000000000000E+03   1.60100000000000000E+03   1.70100000000000000E+03   1.80100000000000000E+03   1.90100000000000000E+03
             2.00100000000000000E+03   2.10100000000000000E+03   2.20100000000000000E+03   2.30100000000000000E+03   2.40100000000000000E+03
             2.50100000000000000E+03   2.60100000000000000E+03   2.70100000000000000E+03   2.80100000000000000E+03   2.90100000000000000E+03
             3.00100000000000000E+03   3.10100000000000000E+03   3.20100000000000000E+03   3.30100000000000000E+03   3.40100000000000000E+03
             3.50100000000000000E+03   3.60100000000000000E+03   3.70100000000000000E+03   3.80100000000000000E+03   3.90100000000000000E+03
             4.00100000000000000E+03   4.10100000000000000E+03   4.20100000000000000E+03   4.30100000000000000E+03   4.40100000000000000E+03
             4.50100000000000000E+03   4.60100000000000000E+03   4.70100000000000000E+03   4.80100000000000000E+03   4.90100000000000000E+03
             5.00100000000000000E+03   5.10100000000000000E+03   5.20100000000000000E+03   5.30100000000000000E+03   5.40100000000000000E+03
             5.50100000000000000E+03   5.60100000000000000E+03   5.70100000000000000E+03   5.80100000000000000E+03   5.90100000000000000E+03
             6.00100000000000000E+03   6.10100000000000000E+03   6.20100000000000000E+03   6.30100000000000000E+03   6.40100000000000000E+03
             6.50100000000000000E+03   6.60100000000000000E+03   6.70100000000000000E+03   6.80100000000000000E+03   6.90100000000000000E+03
             7.00100000000000000E+03   7.10100000000000000E+03   7.20100000000000000E+03   7.30100000000000000E+03   7.40100000000000000E+03
             7.50100000000000000E+03   7.60100000000000000E+03   7.70100000000000000E+03   7.80100000000000000E+03   7.90100000000000000E+03
             8.00100000000000000E+03   8.10100000000000000E+03   8.20100000000000000E+03   8.30100000000000000E+03   8.40100000000000000E+03
             8.50100000000000000E+03   8.60100000000000000E+03   8.70100000000000000E+03   8.80100000000000000E+03   8.90100000000000000E+03
             9.00100000000000000E+03   9.10100000000000000E+03   9.20100000000000000E+03   9.30100000000000000E+03   9.40100000000000000E+03
             9.50100000000000000E+03   9.60100000000000000E+03   9.70100000000000000E+03   9.80100000000000000E+03   9.90100000000000000E+03
             1.00010000000000000E+04   1.01010000000000000E+04   1.02010000000000000E+04   1.03010000000000000E+04   1.04010000000000000E+04
             1.05010000000000000E+04   1.06010000000000000E+04   1.07010000000000000E+04   1.08010000000000000E+04   1.09010000000000000E+04
             1.10010000000000000E+04   1.11010000000000000E+04   1.12010000000000000E+04   1.13010000000000000E+04   1.14010000000000000E+04
             1.15010000000000000E+04   1.16010000000000000E+04   1.17010000000000000E+04   1.18010000000000000E+04   1.19010000000000000E+04
             1.20010000000000000E+04   1.21010000000000000E+04   1.22010000000000000E+04   1.23010000000000000E+04   1.24010000000000000E+04
             1.25010000000000000E+04   1.26010000000000000E+04   1.27010000000000000E+04   1.28010000000000000E+04   1.29010000000000000E+04
             1.30010000000000000E+04   1.31010000000000000E+04   1.32010000000000000E+04   1.33010000000000000E+04   1.34010000000000000E+04
             1.35010000000000000E+04   1.36010000000000000E+04   1.37010000000000000E+04   1.38010000000000000E+04   1.39010000000000000E+04
             1.40010000000000000E+04   1.41010000000000000E+04   1.42010000000000000E+04   1.43010000000000000E+04   1.44010000000000000E+04
             1.45010000000000000E+04   1.46010000000000000E+04   1.47010000000000000E+04   1.48010000000000000E+04   1.49010000000000000E+04
 ETA=    4   1.00000000000000000E+00   1.01000000000000000E+02   2.01000000000000000E+02   3.01000000000000000E+02   4.01000000000000000E+02
             5.01000000000000000E+02   6.01000000000000000E+02   7.01000000000000000E+02   8.01000000000000000E+02   9.01000000000000000E+02
             1.00100000000000000E+03   1.10100000000000000E+03   1.20100000000000000E+03   1.30100000000000000E+03   1.40100000000000000E+03
             1.50100000000000000E+03   1.60100000000000000E+03   1.70100000000000000E+03   1.80100000000000000E+03   1.90100000000000000E+03
             2.00100000000000000E+03   2.10100000000000000E+03   2.20100000000000000E+03   2.30100000000000000E+03   2.40100000000000000E+03
             2.50100000000000000E+03   2.60100000000000000E+03   2.70100000000000000E+03   2.80100000000000000E+03   2.90100000000000000E+03
             3.00100000000000000E+03   3.10100000000000000E+03   3.20100000000000000E+03   3.30100000000000000E+03   3.40100000000000000E+03
             3.50100000000000000E+03   3.60100000000000000E+03   3.70100000000000000E+03   3.80100000000000000E+03   3.90100000000000000E+03
             4.00100000000000000E+03   4.10100000000000000E+03   4.20100000000000000E+03   4.30100000000000000E+03   4.40100000000000000E+03
             4.50100000000000000E+03   4.60100000000000000E+03   4.70100000000000000E+03   4.80100000000000000E+03   4.90100000000000000E+03
             5.00100000000000000E+03   5.10100000000000000E+03   5.20100000000000000E+03   5.30100000000000000E+03   5.40100000000000000E+03
             5.50100000000000000E+03   5.60100000000000000E+03   5.70100000000000000E+03   5.80100000000000000E+03   5.90100000000000000E+03
             6.00100000000000000E+03   6.10100000000000000E+03   6.20100000000000000E+03   6.30100000000000000E+03   6.40100000000000000E+03
             6.50100000000000000E+03   6.60100000000000000E+03   6.70100000000000000E+03   6.80100000000000000E+03   6.90100000000000000E+03
             7.00100000000000000E+03   7.10100000000000000E+03   7.20100000000000000E+03   7.30100000000000000E+03   7.40100000000000000E+03
             7.50100000000000000E+03   7.60100000000000000E+03   7.70100000000000000E+03   7.80100000000000000E+03   7.90100000000000000E+03
             8.00100000000000000E+03   8.10100000000000000E+03   8.20100000000000000E+03   8.30100000000000000E+03   8.40100000000000000E+03
             8.50100000000000000E+03   8.60100000000000000E+03   8.70100000000000000E+03   8.80100000000000000E+03   8.90100000000000000E+03
             9.00100000000000000E+03   9.10100000000000000E+03   9.20100000000000000E+03   9.30100000000000000E+03   9.40100000000000000E+03
             9.50100000000000000E+03   9.60100000000000000E+03   9.70100000000000000E+03   9.80100000000000000E+03   9.90100000000000000E+03
             1.00010000000000000E+04   1.01010000000000000E+04   1.02010000000000000E+04   1.03010000000000000E+04   1.04010000000000000E+04
             1.05010000000000000E+04   1.06010000000000000E+04   1.07010000000000000E+04   1.08010000000000000E+04   1.09010000000000000E+04
             1.10010000000000000E+04   1.11010000000000000E+04   1.12010000000000000E+04   1.13010000000000000E+04   1.14010000000000000E+04
             1.15010000000000000E+04   1.16010000000000000E+04   1.17010000000000000E+04   1.18010000000000000E+04   1.19010000000000000E+04
             1.20010000000000000E+04   1.21010000000000000E+04   1.22010000000000000E+04   1.23010000000000000E+04   1.24010000000000000E+04
             1.25010000000000000E+04   1.26010000000000000E+04   1.27010000000000000E+04   1.28010000000000000E+04   1.29010000000000000E+04
             1.30010000000000000E+04   1.31010000000000000E+04   1.32010000000000000E+04   1.33010000000000000E+04   1.34010000000000000E+04
             1.35010000000000000E+04   1.36010000000000000E+04   1.37010000000000000E+04   1.38010000000000000E+04   1.39010000000000000E+04
             1.40010000000000000E+04   1.41010000000000000E+04   1.42010000000000000E+04   1.43010000000000000E+04   1.44010000000000000E+04
             1.45010000000000000E+04   1.46010000000000000E+04   1.47010000000000000E+04   1.48010000000000000E+04   1.49010000000000000E+04
 ETA=    5   1.00000000000000000E+00   1.01000000000000000E+02   2.01000000000000000E+02   3.01000000000000000E+02   4.01000000000000000E+02
             5.01000000000000000E+02   6.01000000000000000E+02   7.01000000000000000E+02   8.01000000000000000E+02   9.01000000000000000E+02
             1.00100000000000000E+03   1.10100000000000000E+03   1.20100000000000000E+03   1.30100000000000000E+03   1.40100000000000000E+03
             1.50100000000000000E+03   1.60100000000000000E+03   1.70100000000000000E+03   1.80100000000000000E+03   1.90100000000000000E+03
             2.00100000000000000E+03   2.10100000000000000E+03   2.20100000000000000E+03   2.30100000000000000E+03   2.40100000000000000E+03
             2.50100000000000000E+03   2.60100000000000000E+03   2.70100000000000000E+03   2.80100000000000000E+03   2.90100000000000000E+03
             3.00100000000000000E+03   3.10100000000000000E+03   3.20100000000000000E+03   3.30100000000000000E+03   3.40100000000000000E+03
             3.50100000000000000E+03   3.60100000000000000E+03   3.70100000000000000E+03   3.80100000000000000E+03   3.90100000000000000E+03
             4.00100000000000000E+03   4.10100000000000000E+03   4.20100000000000000E+03   4.30100000000000000E+03   4.40100000000000000E+03
             4.50100000000000000E+03   4.60100000000000000E+03   4.70100000000000000E+03   4.80100000000000000E+03   4.90100000000000000E+03
             5.00100000000000000E+03   5.10100000000000000E+03   5.20100000000000000E+03   5.30100000000000000E+03   5.40100000000000000E+03
             5.50100000000000000E+03   5.60100000000000000E+03   5.70100000000000000E+03   5.80100000000000000E+03   5.90100000000000000E+03
             6.00100000000000000E+03   6.10100000000000000E+03   6.20100000000000000E+03   6.30100000000000000E+03   6.40100000000000000E+03
             6.50100000000000000E+03   6.60100000000000000E+03   6.70100000000000000E+03   6.80100000000000000E+03   6.90100000000000000E+03
             7.00100000000000000E+03   7.10100000000000000E+03   7.20100000000000000E+03   7.30100000000000000E+03   7.40100000000000000E+03
             7.50100000000000000E+03   7.60100000000000000E+03   7.70100000000000000E+03   7.80100000000000000E+03   7.90100000000000000E+03
             8.00100000000000000E+03   8.10100000000000000E+03   8.20100000000000000E+03   8.30100000000000000E+03   8.40100000000000000E+03
             8.50100000000000000E+03   8.60100000000000000E+03   8.70100000000000000E+03   8.80100000000000000E+03   8.90100000000000000E+03
             9.00100000000000000E+03   9.10100000000000000E+03   9.20100000000000000E+03   9.30100000000000000E+03   9.40100000000000000E+03
             9.50100000000000000E+03   9.60100000000000000E+03   9.70100000000000000E+03   9.80100000000000000E+03   9.90100000000000000E+03
             1.00010000000000000E+04   1.01010000000000000E+04   1.02010000000000000E+04   1.03010000000000000E+04   1.04010000000000000E+04
             1.05010000000000000E+04   1.06010000000000000E+04   1.07010000000000000E+04   1.08010000000000000E+04   1.09010000000000000E+04
             1.10010000000000000E+04   1.11010000000000000E+04   1.12010000000000000E+04   1.13010000000000000E+04   1.14010000000000000E+04
             1.15010000000000000E+04   1.16010000000000000E+04   1.17010000000000000E+04   1.18010000000000000E+04   1.19010000000000000E+04
             1.20010000000000000E+04   1.21010000000000000E+04   1.22010000000000000E+04   1.23010000000000000E+04   1.24010000000000000E+04
             1.25010000000000000E+04   1.26010000000000000E+04   1.27010000000000000E+04   1.28010000000000000E+04   1.29010000000000000E+04
             1.30010000000000000E+04   1.31010000000000000E+04   1.32010000000000000E+04   1.33010000000000000E+04   1.34010000000000000E+04
             1.35010000000000000E+04   1.36010000000000000E+04   1.37010000000000000E+04   1.38010000000000000E+04   1.39010000000000000E+04
             1.40010000000000000E+04   1.41010000000000000E+04   1.42010000000000000E+04   1.43010000000000000E+04   1.44010000000000000E+04
             1.45010000000000000E+04   1.46010000000000000E+04   1.47010000000000000E+04   1.48010000000000000E+04   1.49010000000000000E+04
 ETA=    6   1.00000000000000000E+00   1.01000000000000000E+02   2.01000000000000000E+02   3.01000000000000000E+02   4.01000000000000000E+02
             5.01000000000000000E+02   6.01000000000000000E+02   7.01000000000000000E+02   8.01000000000000000E+02   9.01000000000000000E+02
             1.00100000000000000E+03   1.10100000000000000E+03   1.20100000000000000E+03   1.30100000000000000E+03   1.40100000000000000E+03
             1.50100000000000000E+03   1.60100000000000000E+03   1.70100000000000000E+03   1.80100000000000000E+03   1.90100000000000000E+03
             2.00100000000000000E+03   2.10100000000000000E+03   2.20100000000000000E+03   2.30100000000000000E+03   2.40100000000000000E+03
             2.50100000000000000E+03   2.60100000000000000E+03   2.70100000000000000E+03   2.80100000000000000E+03   2.90100000000000000E+03
             3.00100000000000000E+03   3.10100000000000000E+03   3.20100000000000000E+03   3.30100000000000000E+03   3.40100000000000000E+03
             3.50100000000000000E+03   3.60100000000000000E+03   3.70100000000000000E+03   3.80100000000000000E+03   3.90100000000000000E+03
             4.00100000000000000E+03   4.10100000000000000E+03   4.20100000000000000E+03   4.30100000000000000E+03   4.40100000000000000E+03
             4.50100000000000000E+03   4.60100000000000000E+03   4.70100000000000000E+03   4.80100000000000000E+03   4.90100000000000000E+03
             5.00100000000000000E+03   5.10100000000000000E+03   5.20100000000000000E+03   5.30100000000000000E+03   5.40100000000000000E+03
             5.50100000000000000E+03   5.60100000000000000E+03   5.70100000000000000E+03   5.80100000000000000E+03   5.90100000000000000E+03
             6.00100000000000000E+03   6.10100000000000000E+03   6.20100000000000000E+03   6.30100000000000000E+03   6.40100000000000000E+03
             6.50100000000000000E+03   6.60100000000000000E+03   6.70100000000000000E+03   6.80100000000000000E+03   6.90100000000000000E+03
             7.00100000000000000E+03   7.10100000000000000E+03   7.20100000000000000E+03   7.30100000000000000E+03   7.40100000000000000E+03
             7.50100000000000000E+03   7.60100000000000000E+03   7.70100000000000000E+03   7.80100000000000000E+03   7.90100000000000000E+03
             8.00100000000000000E+03   8.10100000000000000E+03   8.20100000000000000E+03   8.30100000000000000E+03   8.40100000000000000E+03
             8.50100000000000000E+03   8.60100000000000000E+03   8.70100000000000000E+03   8.80100000000000000E+03   8.90100000000000000E+03
             9.00100000000000000E+03   9.10100000000000000E+03   9.20100000000000000E+03   9.30100000000000000E+03   9.40100000000000000E+03
             9.50100000000000000E+03   9.60100000000000000E+03   9.70100000000000000E+03   9.80100000000000000E+03   9.90100000000000000E+03
             1.00010000000000000E+04   1.01010000000000000E+04   1.02010000000000000E+04   1.03010000000000000E+04   1.04010000000000000E+04
             1.05010000000000000E+04   1.06010000000000000E+04   1.07010000000000000E+04   1.08010000000000000E+04   1.09010000000000000E+04
             1.10010000000000000E+04   1.11010000000000000E+04   1.12010000000000000E+04   1.13010000000000000E+04   1.14010000000000000E+04
             1.15010000000000000E+04   1.16010000000000000E+04   1.17010000000000000E+04   1.18010000000000000E+04   1.19010000000000000E+04
             1.20010000000000000E+04   1.21010000000000000E+04   1.22010000000000000E+04   1.23010000000000000E+04   1.24010000000000000E+04
             1.25010000000000000E+04   1.26010000000000000E+04   1.27010000000000000E+04   1.28010000000000000E+04   1.29010000000000000E+04
             1.30010000000000000E+04   1.31010000000000000E+04   1.32010000000000000E+04   1.33010000000000000E+04   1.34010000000000000E+04
             1.35010000000000000E+04   1.36010000000000000E+04   1.37010000000000000E+04   1.38010000000000000E+04   1.39010000000000000E+04
             1.40010000000000000E+04   1.41010000000000000E+04   1.42010000000000000E+04   1.43010000000000000E+04   1.44010000000000000E+04
             1.45010000000000000E+04   1.46010000000000000E+04   1.47010000000000000E+04   1.48010000000000000E+04   1.49010000000000000E+04
 ETA=    7   1.00000000000000000E+00   1.01000000000000000E+02   2.01000000000000000E+02   3.01000000000000000E+02   4.01000000000000000E+02
             5.01000000000000000E+02   6.01000000000000000E+02   7.01000000000000000E+02   8.01000000000000000E+02   9.01000000000000000E+02
             1.00100000000000000E+03   1.10100000000000000E+03   1.20100000000000000E+03   1.30100000000000000E+03   1.40100000000000000E+03
             1.50100000000000000E+03   1.60100000000000000E+03   1.70100000000000000E+03   1.80100000000000000E+03   1.90100000000000000E+03
             2.00100000000000000E+03   2.10100000000000000E+03   2.20100000000000000E+03   2.30100000000000000E+03   2.40100000000000000E+03
             2.50100000000000000E+03   2.60100000000000000E+03   2.70100000000000000E+03   2.80100000000000000E+03   2.90100000000000000E+03
             3.00100000000000000E+03   3.10100000000000000E+03   3.20100000000000000E+03   3.30100000000000000E+03   3.40100000000000000E+03
             3.50100000000000000E+03   3.60100000000000000E+03   3.70100000000000000E+03   3.80100000000000000E+03   3.90100000000000000E+03
             4.00100000000000000E+03   4.10100000000000000E+03   4.20100000000000000E+03   4.30100000000000000E+03   4.40100000000000000E+03
             4.50100000000000000E+03   4.60100000000000000E+03   4.70100000000000000E+03   4.80100000000000000E+03   4.90100000000000000E+03
             5.00100000000000000E+03   5.10100000000000000E+03   5.20100000000000000E+03   5.30100000000000000E+03   5.40100000000000000E+03
             5.50100000000000000E+03   5.60100000000000000E+03   5.70100000000000000E+03   5.80100000000000000E+03   5.90100000000000000E+03
             6.00100000000000000E+03   6.10100000000000000E+03   6.20100000000000000E+03   6.30100000000000000E+03   6.40100000000000000E+03
             6.50100000000000000E+03   6.60100000000000000E+03   6.70100000000000000E+03   6.80100000000000000E+03   6.90100000000000000E+03
             7.00100000000000000E+03   7.10100000000000000E+03   7.20100000000000000E+03   7.30100000000000000E+03   7.40100000000000000E+03
             7.50100000000000000E+03   7.60100000000000000E+03   7.70100000000000000E+03   7.80100000000000000E+03   7.90100000000000000E+03
             8.00100000000000000E+03   8.10100000000000000E+03   8.20100000000000000E+03   8.30100000000000000E+03   8.40100000000000000E+03
             8.50100000000000000E+03   8.60100000000000000E+03   8.70100000000000000E+03   8.80100000000000000E+03   8.90100000000000000E+03
             9.00100000000000000E+03   9.10100000000000000E+03   9.20100000000000000E+03   9.30100000000000000E+03   9.40100000000000000E+03
             9.50100000000000000E+03   9.60100000000000000E+03   9.70100000000000000E+03   9.80100000000000000E+03   9.90100000000000000E+03
             1.00010000000000000E+04   1.01010000000000000E+04   1.02010000000000000E+04   1.03010000000000000E+04   1.04010000000000000E+04
             1.05010000000000000E+04   1.06010000000000000E+04   1.07010000000000000E+04   1.08010000000000000E+04   1.09010000000000000E+04
             1.10010000000000000E+04   1.11010000000000000E+04   1.12010000000000000E+04   1.13010000000000000E+04   1.14010000000000000E+04
             1.15010000000000000E+04   1.16010000000000000E+04   1.17010000000000000E+04   1.18010000000000000E+04   1.19010000000000000E+04
             1.20010000000000000E+04   1.21010000000000000E+04   1.22010000000000000E+04   1.23010000000000000E+04   1.24010000000000000E+04
             1.25010000000000000E+04   1.26010000000000000E+04   1.27010000000000000E+04   1.28010000000000000E+04   1.29010000000000000E+04
             1.30010000000000000E+04   1.31010000000000000E+04   1.32010000000000000E+04   1.33010000000000000E+04   1.34010000000000000E+04
             1.35010000000000000E+04   1.36010000000000000E+04   1.37010000000000000E+04   1.38010000000000000E+04   1.39010000000000000E+04
             1.40010000000000000E+04   1.41010000000000000E+04   1.42010000000000000E+04   1.43010000000000000E+04   1.44010000000000000E+04
             1.45010000000000000E+04   1.46010000000000000E+04   1.47010000000000000E+04   1.48010000000000000E+04   1.49010000000000000E+04
 ETA=    8   1.00000000000000000E+00   1.01000000000000000E+02   2.01000000000000000E+02   3.01000000000000000E+02   4.01000000000000000E+02
             5.01000000000000000E+02   6.01000000000000000E+02   7.01000000000000000E+02   8.01000000000000000E+02   9.01000000000000000E+02
             1.00100000000000000E+03   1.10100000000000000E+03   1.20100000000000000E+03   1.30100000000000000E+03   1.40100000000000000E+03
             1.50100000000000000E+03   1.60100000000000000E+03   1.70100000000000000E+03   1.80100000000000000E+03   1.90100000000000000E+03
             2.00100000000000000E+03   2.10100000000000000E+03   2.20100000000000000E+03   2.30100000000000000E+03   2.40100000000000000E+03
             2.50100000000000000E+03   2.60100000000000000E+03   2.70100000000000000E+03   2.80100000000000000E+03   2.90100000000000000E+03
             3.00100000000000000E+03   3.10100000000000000E+03   3.20100000000000000E+03   3.30100000000000000E+03   3.40100000000000000E+03
             3.50100000000000000E+03   3.60100000000000000E+03   3.70100000000000000E+03   3.80100000000000000E+03   3.90100000000000000E+03
             4.00100000000000000E+03   4.10100000000000000E+03   4.20100000000000000E+03   4.30100000000000000E+03   4.40100000000000000E+03
             4.50100000000000000E+03   4.60100000000000000E+03   4.70100000000000000E+03   4.80100000000000000E+03   4.90100000000000000E+03
             5.00100000000000000E+03   5.10100000000000000E+03   5.20100000000000000E+03   5.30100000000000000E+03   5.40100000000000000E+03
             5.50100000000000000E+03   5.60100000000000000E+03   5.70100000000000000E+03   5.80100000000000000E+03   5.90100000000000000E+03
             6.00100000000000000E+03   6.10100000000000000E+03   6.20100000000000000E+03   6.30100000000000000E+03   6.40100000000000000E+03
             6.50100000000000000E+03   6.60100000000000000E+03   6.70100000000000000E+03   6.80100000000000000E+03   6.90100000000000000E+03
             7.00100000000000000E+03   7.10100000000000000E+03   7.20100000000000000E+03   7.30100000000000000E+03   7.40100000000000000E+03
             7.50100000000000000E+03   7.60100000000000000E+03   7.70100000000000000E+03   7.80100000000000000E+03   7.90100000000000000E+03
             8.00100000000000000E+03   8.10100000000000000E+03   8.20100000000000000E+03   8.30100000000000000E+03   8.40100000000000000E+03
             8.50100000000000000E+03   8.60100000000000000E+03   8.70100000000000000E+03   8.80100000000000000E+03   8.90100000000000000E+03
             9.00100000000000000E+03   9.10100000000000000E+03   9.20100000000000000E+03   9.30100000000000000E+03   9.40100000000000000E+03
             9.50100000000000000E+03   9.60100000000000000E+03   9.70100000000000000E+03   9.80100000000000000E+03   9.90100000000000000E+03
             1.00010000000000000E+04   1.01010000000000000E+04   1.02010000000000000E+04   1.03010000000000000E+04   1.04010000000000000E+04
             1.05010000000000000E+04   1.06010000000000000E+04   1.07010000000000000E+04   1.08010000000000000E+04   1.09010000000000000E+04
             1.10010000000000000E+04   1.11010000000000000E+04   1.12010000000000000E+04   1.13010000000000000E+04   1.14010000000000000E+04
             1.15010000000000000E+04   1.16010000000000000E+04   1.17010000000000000E+04   1.18010000000000000E+04   1.19010000000000000E+04
             1.20010000000000000E+04   1.21010000000000000E+04   1.22010000000000000E+04   1.23010000000000000E+04   1.24010000000000000E+04
             1.25010000000000000E+04   1.26010000000000000E+04   1.27010000000000000E+04   1.28010000000000000E+04   1.29010000000000000E+04
             1.30010000000000000E+04   1.31010000000000000E+04   1.32010000000000000E+04   1.33010000000000000E+04   1.34010000000000000E+04
             1.35010000000000000E+04   1.36010000000000000E+04   1.37010000000000000E+04   1.38010000000000000E+04   1.39010000000000000E+04
             1.40010000000000000E+04   1.41010000000000000E+04   1.42010000000000000E+04   1.43010000000000000E+04   1.44010000000000000E+04
             1.45010000000000000E+04   1.46010000000000000E+04   1.47010000000000000E+04   1.48010000000000000E+04   1.49010000000000000E+04
 ETA=    9   1.00000000000000000E+00   1.01000000000000000E+02   2.01000000000000000E+02   3.01000000000000000E+02   4.01000000000000000E+02
             5.01000000000000000E+02   6.01000000000000000E+02   7.01000000000000000E+02   8.01000000000000000E+02   9.01000000000000000E+02
             1.00100000000000000E+03   1.10100000000000000E+03   1.20100000000000000E+03   1.30100000000000000E+03   1.40100000000000000E+03
             1.50100000000000000E+03   1.60100000000000000E+03   1.70100000000000000E+03   1.80100000000000000E+03   1.90100000000000000E+03
             2.00100000000000000E+03   2.10100000000000000E+03   2.20100000000000000E+03   2.30100000000000000E+03   2.40100000000000000E+03
             2.50100000000000000E+03   2.60100000000000000E+03   2.70100000000000000E+03   2.80100000000000000E+03   2.90100000000000000E+03
             3.00100000000000000E+03   3.10100000000000000E+03   3.20100000000000000E+03   3.30100000000000000E+03   3.40100000000000000E+03
             3.50100000000000000E+03   3.60100000000000000E+03   3.70100000000000000E+03   3.80100000000000000E+03   3.90100000000000000E+03
             4.00100000000000000E+03   4.10100000000000000E+03   4.20100000000000000E+03   4.30100000000000000E+03   4.40100000000000000E+03
             4.50100000000000000E+03   4.60100000000000000E+03   4.70100000000000000E+03   4.80100000000000000E+03   4.90100000000000000E+03
             5.00100000000000000E+03   5.10100000000000000E+03   5.20100000000000000E+03   5.30100000000000000E+03   5.40100000000000000E+03
             5.50100000000000000E+03   5.60100000000000000E+03   5.70100000000000000E+03   5.80100000000000000E+03   5.90100000000000000E+03
             6.00100000000000000E+03   6.10100000000000000E+03   6.20100000000000000E+03   6.30100000000000000E+03   6.40100000000000000E+03
             6.50100000000000000E+03   6.60100000000000000E+03   6.70100000000000000E+03   6.80100000000000000E+03   6.90100000000000000E+03
             7.00100000000000000E+03   7.10100000000000000E+03   7.20100000000000000E+03   7.30100000000000000E+03   7.40100000000000000E+03
             7.50100000000000000E+03   7.60100000000000000E+03   7.70100000000000000E+03   7.80100000000000000E+03   7.90100000000000000E+03
             8.00100000000000000E+03   8.10100000000000000E+03   8.20100000000000000E+03   8.30100000000000000E+03   8.40100000000000000E+03
             8.50100000000000000E+03   8.60100000000000000E+03   8.70100000000000000E+03   8.80100000000000000E+03   8.90100000000000000E+03
             9.00100000000000000E+03   9.10100000000000000E+03   9.20100000000000000E+03   9.30100000000000000E+03   9.40100000000000000E+03
             9.50100000000000000E+03   9.60100000000000000E+03   9.70100000000000000E+03   9.80100000000000000E+03   9.90100000000000000E+03
             1.00010000000000000E+04   1.01010000000000000E+04   1.02010000000000000E+04   1.03010000000000000E+04   1.04010000000000000E+04
             1.05010000000000000E+04   1.06010000000000000E+04   1.07010000000000000E+04   1.08010000000000000E+04   1.09010000000000000E+04
             1.10010000000000000E+04   1.11010000000000000E+04   1.12010000000000000E+04   1.13010000000000000E+04   1.14010000000000000E+04
             1.15010000000000000E+04   1.16010000000000000E+04   1.17010000000000000E+04   1.18010000000000000E+04   1.19010000000000000E+04
             1.20010000000000000E+04   1.21010000000000000E+04   1.22010000000000000E+04   1.23010000000000000E+04   1.24010000000000000E+04
             1.25010000000000000E+04   1.26010000000000000E+04   1.27010000000000000E+04   1.28010000000000000E+04   1.29010000000000000E+04
             1.30010000000000000E+04   1.31010000000000000E+04   1.32010000000000000E+04   1.33010000000000000E+04   1.34010000000000000E+04
             1.35010000000000000E+04   1.36010000000000000E+04   1.37010000000000000E+04   1.38010000000000000E+04   1.39010000000000000E+04
             1.40010000000000000E+04   1.41010000000000000E+04   1.42010000000000000E+04   1.43010000000000000E+04   1.44010000000000000E+04
             1.45010000000000000E+04   1.46010000000000000E+04   1.47010000000000000E+04   1.48010000000000000E+04   1.49010000000000000E+04
 ETA=   10   1.00000000000000000E+00   1.01000000000000000E+02   2.01000000000000000E+02   3.01000000000000000E+02   4.01000000000000000E+02
             5.01000000000000000E+02   6.01000000000000000E+02   7.01000000000000000E+02   8.01000000000000000E+02   9.01000000000000000E+02
             1.00100000000000000E+03   1.10100000000000000E+03   1.20100000000000000E+03   1.30100000000000000E+03   1.40100000000000000E+03
             1.50100000000000000E+03   1.60100000000000000E+03   1.70100000000000000E+03   1.80100000000000000E+03   1.90100000000000000E+03
             2.00100000000000000E+03   2.10100000000000000E+03   2.20100000000000000E+03   2.30100000000000000E+03   2.40100000000000000E+03
             2.50100000000000000E+03   2.60100000000000000E+03   2.70100000000000000E+03   2.80100000000000000E+03   2.90100000000000000E+03
             3.00100000000000000E+03   3.10100000000000000E+03   3.20100000000000000E+03   3.30100000000000000E+03   3.40100000000000000E+03
             3.50100000000000000E+03   3.60100000000000000E+03   3.70100000000000000E+03   3.80100000000000000E+03   3.90100000000000000E+03
             4.00100000000000000E+03   4.10100000000000000E+03   4.20100000000000000E+03   4.30100000000000000E+03   4.40100000000000000E+03
             4.50100000000000000E+03   4.60100000000000000E+03   4.70100000000000000E+03   4.80100000000000000E+03   4.90100000000000000E+03
             5.00100000000000000E+03   5.10100000000000000E+03   5.20100000000000000E+03   5.30100000000000000E+03   5.40100000000000000E+03
             5.50100000000000000E+03   5.60100000000000000E+03   5.70100000000000000E+03   5.80100000000000000E+03   5.90100000000000000E+03
             6.00100000000000000E+03   6.10100000000000000E+03   6.20100000000000000E+03   6.30100000000000000E+03   6.40100000000000000E+03
             6.50100000000000000E+03   6.60100000000000000E+03   6.70100000000000000E+03   6.80100000000000000E+03   6.90100000000000000E+03
             7.00100000000000000E+03   7.10100000000000000E+03   7.20100000000000000E+03   7.30100000000000000E+03   7.40100000000000000E+03
             7.50100000000000000E+03   7.60100000000000000E+03   7.70100000000000000E+03   7.80100000000000000E+03   7.90100000000000000E+03
             8.00100000000000000E+03   8.10100000000000000E+03   8.20100000000000000E+03   8.30100000000000000E+03   8.40100000000000000E+03
             8.50100000000000000E+03   8.60100000000000000E+03   8.70100000000000000E+03   8.80100000000000000E+03   8.90100000000000000E+03
             9.00100000000000000E+03   9.10100000000000000E+03   9.20100000000000000E+03   9.30100000000000000E+03   9.40100000000000000E+03
             9.50100000000000000E+03   9.60100000000000000E+03   9.70100000000000000E+03   9.80100000000000000E+03   9.90100000000000000E+03
             1.00010000000000000E+04   1.01010000000000000E+04   1.02010000000000000E+04   1.03010000000000000E+04   1.04010000000000000E+04
             1.05010000000000000E+04   1.06010000000000000E+04   1.07010000000000000E+04   1.08010000000000000E+04   1.09010000000000000E+04
             1.10010000000000000E+04   1.11010000000000000E+04   1.12010000000000000E+04   1.13010000000000000E+04   1.14010000000000000E+04
             1.15010000000000000E+04   1.16010000000000000E+04   1.17010000000000000E+04   1.18010000000000000E+04   1.19010000000000000E+04
             1.20010000000000000E+04   1.21010000000000000E+04   1.22010000000000000E+04   1.23010000000000000E+04   1.24010000000000000E+04
             1.25010000000000000E+04   1.26010000000000000E+04   1.27010000000000000E+04   1.28010000000000000E+04   1.29010000000000000E+04
             1.30010000000000000E+04   1.31010000000000000E+04   1.32010000000000000E+04   1.33010000000000000E+04   1.34010000000000000E+04
             1.35010000000000000E+04   1.36010000000000000E+04   1.37010000000000000E+04   1.38010000000000000E+04   1.39010000000000000E+04
             1.40010000000000000E+04   1.41010000000000000E+04   1.42010000000000000E+04   1.43010000000000000E+04   1.44010000000000000E+04
             1.45010000000000000E+04   1.46010000000000000E+04   1.47010000000000000E+04   1.48010000000000000E+04   1.49010000000000000E+04
 ETA=   11   1.00000000000000000E+00   1.01000000000000000E+02   2.01000000000000000E+02   3.01000000000000000E+02   4.01000000000000000E+02
             5.01000000000000000E+02   6.01000000000000000E+02   7.01000000000000000E+02   8.01000000000000000E+02   9.01000000000000000E+02
             1.00100000000000000E+03   1.10100000000000000E+03   1.20100000000000000E+03   1.30100000000000000E+03   1.40100000000000000E+03
             1.50100000000000000E+03   1.60100000000000000E+03   1.70100000000000000E+03   1.80100000000000000E+03   1.90100000000000000E+03
             2.00100000000000000E+03   2.10100000000000000E+03   2.20100000000000000E+03   2.30100000000000000E+03   2.40100000000000000E+03
             2.50100000000000000E+03   2.60100000000000000E+03   2.70100000000000000E+03   2.80100000000000000E+03   2.90100000000000000E+03
             3.00100000000000000E+03   3.10100000000000000E+03   3.20100000000000000E+03   3.30100000000000000E+03   3.40100000000000000E+03
             3.50100000000000000E+03   3.60100000000000000E+03   3.70100000000000000E+03   3.80100000000000000E+03   3.90100000000000000E+03
             4.00100000000000000E+03   4.10100000000000000E+03   4.20100000000000000E+03   4.30100000000000000E+03   4.40100000000000000E+03
             4.50100000000000000E+03   4.60100000000000000E+03   4.70100000000000000E+03   4.80100000000000000E+03   4.90100000000000000E+03
             5.00100000000000000E+03   5.10100000000000000E+03   5.20100000000000000E+03   5.30100000000000000E+03   5.40100000000000000E+03
             5.50100000000000000E+03   5.60100000000000000E+03   5.70100000000000000E+03   5.80100000000000000E+03   5.90100000000000000E+03
             6.00100000000000000E+03   6.10100000000000000E+03   6.20100000000000000E+03   6.30100000000000000E+03   6.40100000000000000E+03
             6.50100000000000000E+03   6.60100000000000000E+03   6.70100000000000000E+03   6.80100000000000000E+03   6.90100000000000000E+03
             7.00100000000000000E+03   7.10100000000000000E+03   7.20100000000000000E+03   7.30100000000000000E+03   7.40100000000000000E+03
             7.50100000000000000E+03   7.60100000000000000E+03   7.70100000000000000E+03   7.80100000000000000E+03   7.90100000000000000E+03
             8.00100000000000000E+03   8.10100000000000000E+03   8.20100000000000000E+03   8.30100000000000000E+03   8.40100000000000000E+03
             8.50100000000000000E+03   8.60100000000000000E+03   8.70100000000000000E+03   8.80100000000000000E+03   8.90100000000000000E+03
             9.00100000000000000E+03   9.10100000000000000E+03   9.20100000000000000E+03   9.30100000000000000E+03   9.40100000000000000E+03
             9.50100000000000000E+03   9.60100000000000000E+03   9.70100000000000000E+03   9.80100000000000000E+03   9.90100000000000000E+03
             1.00010000000000000E+04   1.01010000000000000E+04   1.02010000000000000E+04   1.03010000000000000E+04   1.04010000000000000E+04
             1.05010000000000000E+04   1.06010000000000000E+04   1.07010000000000000E+04   1.08010000000000000E+04   1.09010000000000000E+04
             1.10010000000000000E+04   1.11010000000000000E+04   1.12010000000000000E+04   1.13010000000000000E+04   1.14010000000000000E+04
             1.15010000000000000E+04   1.16010000000000000E+04   1.17010000000000000E+04   1.18010000000000000E+04   1.19010000000000000E+04
             1.20010000000000000E+04   1.21010000000000000E+04   1.22010000000000000E+04   1.23010000000000000E+04   1.24010000000000000E+04
             1.25010000000000000E+04   1.26010000000000000E+04   1.27010000000000000E+04   1.28010000000000000E+04   1.29010000000000000E+04
             1.30010000000000000E+04   1.31010000000000000E+04   1.32010000000000000E+04   1.33010000000000000E+04   1.34010000000000000E+04
             1.35010000000000000E+04   1.36010000000000000E+04   1.37010000000000000E+04   1.38010000000000000E+04   1.39010000000000000E+04
             1.40010000000000000E+04   1.41010000000000000E+04   1.42010000000000000E+04   1.43010000000000000E+04   1.44010000000000000E+04
             1.45010000000000000E+04   1.46010000000000000E+04   1.47010000000000000E+04   1.48010000000000000E+04   1.49010000000000000E+04
 ETA=   12   1.00000000000000000E+00   1.01000000000000000E+02   2.01000000000000000E+02   3.01000000000000000E+02   4.01000000000000000E+02
             5.01000000000000000E+02   6.01000000000000000E+02   7.01000000000000000E+02   8.01000000000000000E+02   9.01000000000000000E+02
             1.00100000000000000E+03   1.10100000000000000E+03   1.20100000000000000E+03   1.30100000000000000E+03   1.40100000000000000E+03
             1.50100000000000000E+03   1.60100000000000000E+03   1.70100000000000000E+03   1.80100000000000000E+03   1.90100000000000000E+03
             2.00100000000000000E+03   2.10100000000000000E+03   2.20100000000000000E+03   2.30100000000000000E+03   2.40100000000000000E+03
             2.50100000000000000E+03   2.60100000000000000E+03   2.70100000000000000E+03   2.80100000000000000E+03   2.90100000000000000E+03
             3.00100000000000000E+03   3.10100000000000000E+03   3.20100000000000000E+03   3.30100000000000000E+03   3.40100000000000000E+03
             3.50100000000000000E+03   3.60100000000000000E+03   3.70100000000000000E+03   3.80100000000000000E+03   3.90100000000000000E+03
             4.00100000000000000E+03   4.10100000000000000E+03   4.20100000000000000E+03   4.30100000000000000E+03   4.40100000000000000E+03
             4.50100000000000000E+03   4.60100000000000000E+03   4.70100000000000000E+03   4.80100000000000000E+03   4.90100000000000000E+03
             5.00100000000000000E+03   5.10100000000000000E+03   5.20100000000000000E+03   5.30100000000000000E+03   5.40100000000000000E+03
             5.50100000000000000E+03   5.60100000000000000E+03   5.70100000000000000E+03   5.80100000000000000E+03   5.90100000000000000E+03
             6.00100000000000000E+03   6.10100000000000000E+03   6.20100000000000000E+03   6.30100000000000000E+03   6.40100000000000000E+03
             6.50100000000000000E+03   6.60100000000000000E+03   6.70100000000000000E+03   6.80100000000000000E+03   6.90100000000000000E+03
             7.00100000000000000E+03   7.10100000000000000E+03   7.20100000000000000E+03   7.30100000000000000E+03   7.40100000000000000E+03
             7.50100000000000000E+03   7.60100000000000000E+03   7.70100000000000000E+03   7.80100000000000000E+03   7.90100000000000000E+03
             8.00100000000000000E+03   8.10100000000000000E+03   8.20100000000000000E+03   8.30100000000000000E+03   8.40100000000000000E+03
             8.50100000000000000E+03   8.60100000000000000E+03   8.70100000000000000E+03   8.80100000000000000E+03   8.90100000000000000E+03
             9.00100000000000000E+03   9.10100000000000000E+03   9.20100000000000000E+03   9.30100000000000000E+03   9.40100000000000000E+03
             9.50100000000000000E+03   9.60100000000000000E+03   9.70100000000000000E+03   9.80100000000000000E+03   9.90100000000000000E+03
             1.00010000000000000E+04   1.01010000000000000E+04   1.02010000000000000E+04   1.03010000000000000E+04   1.04010000000000000E+04
             1.05010000000000000E+04   1.06010000000000000E+04   1.07010000000000000E+04   1.08010000000000000E+04   1.09010000000000000E+04
             1.10010000000000000E+04   1.11010000000000000E+04   1.12010000000000000E+04   1.13010000000000000E+04   1.14010000000000000E+04
             1.15010000000000000E+04   1.16010000000000000E+04   1.17010000000000000E+04   1.18010000000000000E+04   1.19010000000000000E+04
             1.20010000000000000E+04   1.21010000000000000E+04   1.22010000000000000E+04   1.23010000000000000E+04   1.24010000000000000E+04
             1.25010000000000000E+04   1.26010000000000000E+04   1.27010000000000000E+04   1.28010000000000000E+04   1.29010000000000000E+04
             1.30010000000000000E+04   1.31010000000000000E+04   1.32010000000000000E+04   1.33010000000000000E+04   1.34010000000000000E+04
             1.35010000000000000E+04   1.36010000000000000E+04   1.37010000000000000E+04   1.38010000000000000E+04   1.39010000000000000E+04
             1.40010000000000000E+04   1.41010000000000000E+04   1.42010000000000000E+04   1.43010000000000000E+04   1.44010000000000000E+04
             1.45010000000000000E+04   1.46010000000000000E+04   1.47010000000000000E+04   1.48010000000000000E+04   1.49010000000000000E+04
 ETA=   13   1.00000000000000000E+00   1.01000000000000000E+02   2.01000000000000000E+02   3.01000000000000000E+02   4.01000000000000000E+02
             5.01000000000000000E+02   6.01000000000000000E+02   7.01000000000000000E+02   8.01000000000000000E+02   9.01000000000000000E+02
             1.00100000000000000E+03   1.10100000000000000E+03   1.20100000000000000E+03   1.30100000000000000E+03   1.40100000000000000E+03
             1.50100000000000000E+03   1.60100000000000000E+03   1.70100000000000000E+03   1.80100000000000000E+03   1.90100000000000000E+03
             2.00100000000000000E+03   2.10100000000000000E+03   2.20100000000000000E+03   2.30100000000000000E+03   2.40100000000000000E+03
             2.50100000000000000E+03   2.60100000000000000E+03   2.70100000000000000E+03   2.80100000000000000E+03   2.90100000000000000E+03
             3.00100000000000000E+03   3.10100000000000000E+03   3.20100000000000000E+03   3.30100000000000000E+03   3.40100000000000000E+03
             3.50100000000000000E+03   3.60100000000000000E+03   3.70100000000000000E+03   3.80100000000000000E+03   3.90100000000000000E+03
             4.00100000000000000E+03   4.10100000000000000E+03   4.20100000000000000E+03   4.30100000000000000E+03   4.40100000000000000E+03
             4.50100000000000000E+03   4.60100000000000000E+03   4.70100000000000000E+03   4.80100000000000000E+03   4.90100000000000000E+03
             5.00100000000000000E+03   5.10100000000000000E+03   5.20100000000000000E+03   5.30100000000000000E+03   5.40100000000000000E+03
             5.50100000000000000E+03   5.60100000000000000E+03   5.70100000000000000E+03   5.80100000000000000E+03   5.90100000000000000E+03
             6.00100000000000000E+03   6.10100000000000000E+03   6.20100000000000000E+03   6.30100000000000000E+03   6.40100000000000000E+03
             6.50100000000000000E+03   6.60100000000000000E+03   6.70100000000000000E+03   6.80100000000000000E+03   6.90100000000000000E+03
             7.00100000000000000E+03   7.10100000000000000E+03   7.20100000000000000E+03   7.30100000000000000E+03   7.40100000000000000E+03
             7.50100000000000000E+03   7.60100000000000000E+03   7.70100000000000000E+03   7.80100000000000000E+03   7.90100000000000000E+03
             8.00100000000000000E+03   8.10100000000000000E+03   8.20100000000000000E+03   8.30100000000000000E+03   8.40100000000000000E+03
             8.50100000000000000E+03   8.60100000000000000E+03   8.70100000000000000E+03   8.80100000000000000E+03   8.90100000000000000E+03
             9.00100000000000000E+03   9.10100000000000000E+03   9.20100000000000000E+03   9.30100000000000000E+03   9.40100000000000000E+03
             9.50100000000000000E+03   9.60100000000000000E+03   9.70100000000000000E+03   9.80100000000000000E+03   9.90100000000000000E+03
             1.00010000000000000E+04   1.01010000000000000E+04   1.02010000000000000E+04   1.03010000000000000E+04   1.04010000000000000E+04
             1.05010000000000000E+04   1.06010000000000000E+04   1.07010000000000000E+04   1.08010000000000000E+04   1.09010000000000000E+04
             1.10010000000000000E+04   1.11010000000000000E+04   1.12010000000000000E+04   1.13010000000000000E+04   1.14010000000000000E+04
             1.15010000000000000E+04   1.16010000000000000E+04   1.17010000000000000E+04   1.18010000000000000E+04   1.19010000000000000E+04
             1.20010000000000000E+04   1.21010000000000000E+04   1.22010000000000000E+04   1.23010000000000000E+04   1.24010000000000000E+04
             1.25010000000000000E+04   1.26010000000000000E+04   1.27010000000000000E+04   1.28010000000000000E+04   1.29010000000000000E+04
             1.30010000000000000E+04   1.31010000000000000E+04   1.32010000000000000E+04   1.33010000000000000E+04   1.34010000000000000E+04
             1.35010000000000000E+04   1.36010000000000000E+04   1.37010000000000000E+04   1.38010000000000000E+04   1.39010000000000000E+04
             1.40010000000000000E+04   1.41010000000000000E+04   1.42010000000000000E+04   1.43010000000000000E+04   1.44010000000000000E+04
             1.45010000000000000E+04   1.46010000000000000E+04   1.47010000000000000E+04   1.48010000000000000E+04   1.49010000000000000E+04
 ETA=   14   1.00000000000000000E+00   1.01000000000000000E+02   2.01000000000000000E+02   3.01000000000000000E+02   4.01000000000000000E+02
             5.01000000000000000E+02   6.01000000000000000E+02   7.01000000000000000E+02   8.01000000000000000E+02   9.01000000000000000E+02
             1.00100000000000000E+03   1.10100000000000000E+03   1.20100000000000000E+03   1.30100000000000000E+03   1.40100000000000000E+03
             1.50100000000000000E+03   1.60100000000000000E+03   1.70100000000000000E+03   1.80100000000000000E+03   1.90100000000000000E+03
             2.00100000000000000E+03   2.10100000000000000E+03   2.20100000000000000E+03   2.30100000000000000E+03   2.40100000000000000E+03
             2.50100000000000000E+03   2.60100000000000000E+03   2.70100000000000000E+03   2.80100000000000000E+03   2.90100000000000000E+03
             3.00100000000000000E+03   3.10100000000000000E+03   3.20100000000000000E+03   3.30100000000000000E+03   3.40100000000000000E+03
             3.50100000000000000E+03   3.60100000000000000E+03   3.70100000000000000E+03   3.80100000000000000E+03   3.90100000000000000E+03
             4.00100000000000000E+03   4.10100000000000000E+03   4.20100000000000000E+03   4.30100000000000000E+03   4.40100000000000000E+03
             4.50100000000000000E+03   4.60100000000000000E+03   4.70100000000000000E+03   4.80100000000000000E+03   4.90100000000000000E+03
             5.00100000000000000E+03   5.10100000000000000E+03   5.20100000000000000E+03   5.30100000000000000E+03   5.40100000000000000E+03
             5.50100000000000000E+03   5.60100000000000000E+03   5.70100000000000000E+03   5.80100000000000000E+03   5.90100000000000000E+03
             6.00100000000000000E+03   6.10100000000000000E+03   6.20100000000000000E+03   6.30100000000000000E+03   6.40100000000000000E+03
             6.50100000000000000E+03   6.60100000000000000E+03   6.70100000000000000E+03   6.80100000000000000E+03   6.90100000000000000E+03
             7.00100000000000000E+03   7.10100000000000000E+03   7.20100000000000000E+03   7.30100000000000000E+03   7.40100000000000000E+03
             7.50100000000000000E+03   7.60100000000000000E+03   7.70100000000000000E+03   7.80100000000000000E+03   7.90100000000000000E+03
             8.00100000000000000E+03   8.10100000000000000E+03   8.20100000000000000E+03   8.30100000000000000E+03   8.40100000000000000E+03
             8.50100000000000000E+03   8.60100000000000000E+03   8.70100000000000000E+03   8.80100000000000000E+03   8.90100000000000000E+03
             9.00100000000000000E+03   9.10100000000000000E+03   9.20100000000000000E+03   9.30100000000000000E+03   9.40100000000000000E+03
             9.50100000000000000E+03   9.60100000000000000E+03   9.70100000000000000E+03   9.80100000000000000E+03   9.90100000000000000E+03
             1.00010000000000000E+04   1.01010000000000000E+04   1.02010000000000000E+04   1.03010000000000000E+04   1.04010000000000000E+04
             1.05010000000000000E+04   1.06010000000000000E+04   1.07010000000000000E+04   1.08010000000000000E+04   1.09010000000000000E+04
             1.10010000000000000E+04   1.11010000000000000E+04   1.12010000000000000E+04   1.13010000000000000E+04   1.14010000000000000E+04
             1.15010000000000000E+04   1.16010000000000000E+04   1.17010000000000000E+04   1.18010000000000000E+04   1.19010000000000000E+04
             1.20010000000000000E+04   1.21010000000000000E+04   1.22010000000000000E+04   1.23010000000000000E+04   1.24010000000000000E+04
             1.25010000000000000E+04   1.26010000000000000E+04   1.27010000000000000E+04   1.28010000000000000E+04   1.29010000000000000E+04
             1.30010000000000000E+04   1.31010000000000000E+04   1.32010000000000000E+04   1.33010000000000000E+04   1.34010000000000000E+04
             1.35010000000000000E+04   1.36010000000000000E+04   1.37010000000000000E+04   1.38010000000000000E+04   1.39010000000000000E+04
             1.40010000000000000E+04   1.41010000000000000E+04   1.42010000000000000E+04   1.43010000000000000E+04   1.44010000000000000E+04
             1.45010000000000000E+04   1.46010000000000000E+04   1.47010000000000000E+04   1.48010000000000000E+04   1.49010000000000000E+04
 ETA=   15   1.00000000000000000E+00   1.01000000000000000E+02   2.01000000000000000E+02   3.01000000000000000E+02   4.01000000000000000E+02
             5.01000000000000000E+02   6.01000000000000000E+02   7.01000000000000000E+02   8.01000000000000000E+02   9.01000000000000000E+02
             1.00100000000000000E+03   1.10100000000000000E+03   1.20100000000000000E+03   1.30100000000000000E+03   1.40100000000000000E+03
             1.50100000000000000E+03   1.60100000000000000E+03   1.70100000000000000E+03   1.80100000000000000E+03   1.90100000000000000E+03
             2.00100000000000000E+03   2.10100000000000000E+03   2.20100000000000000E+03   2.30100000000000000E+03   2.40100000000000000E+03
             2.50100000000000000E+03   2.60100000000000000E+03   2.70100000000000000E+03   2.80100000000000000E+03   2.90100000000000000E+03
             3.00100000000000000E+03   3.10100000000000000E+03   3.20100000000000000E+03   3.30100000000000000E+03   3.40100000000000000E+03
             3.50100000000000000E+03   3.60100000000000000E+03   3.70100000000000000E+03   3.80100000000000000E+03   3.90100000000000000E+03
             4.00100000000000000E+03   4.10100000000000000E+03   4.20100000000000000E+03   4.30100000000000000E+03   4.40100000000000000E+03
             4.50100000000000000E+03   4.60100000000000000E+03   4.70100000000000000E+03   4.80100000000000000E+03   4.90100000000000000E+03
             5.00100000000000000E+03   5.10100000000000000E+03   5.20100000000000000E+03   5.30100000000000000E+03   5.40100000000000000E+03
             5.50100000000000000E+03   5.60100000000000000E+03   5.70100000000000000E+03   5.80100000000000000E+03   5.90100000000000000E+03
             6.00100000000000000E+03   6.10100000000000000E+03   6.20100000000000000E+03   6.30100000000000000E+03   6.40100000000000000E+03
             6.50100000000000000E+03   6.60100000000000000E+03   6.70100000000000000E+03   6.80100000000000000E+03   6.90100000000000000E+03
             7.00100000000000000E+03   7.10100000000000000E+03   7.20100000000000000E+03   7.30100000000000000E+03   7.40100000000000000E+03
             7.50100000000000000E+03   7.60100000000000000E+03   7.70100000000000000E+03   7.80100000000000000E+03   7.90100000000000000E+03
             8.00100000000000000E+03   8.10100000000000000E+03   8.20100000000000000E+03   8.30100000000000000E+03   8.40100000000000000E+03
             8.50100000000000000E+03   8.60100000000000000E+03   8.70100000000000000E+03   8.80100000000000000E+03   8.90100000000000000E+03
             9.00100000000000000E+03   9.10100000000000000E+03   9.20100000000000000E+03   9.30100000000000000E+03   9.40100000000000000E+03
             9.50100000000000000E+03   9.60100000000000000E+03   9.70100000000000000E+03   9.80100000000000000E+03   9.90100000000000000E+03
             1.00010000000000000E+04   1.01010000000000000E+04   1.02010000000000000E+04   1.03010000000000000E+04   1.04010000000000000E+04
             1.05010000000000000E+04   1.06010000000000000E+04   1.07010000000000000E+04   1.08010000000000000E+04   1.09010000000000000E+04
             1.10010000000000000E+04   1.11010000000000000E+04   1.12010000000000000E+04   1.13010000000000000E+04   1.14010000000000000E+04
             1.15010000000000000E+04   1.16010000000000000E+04   1.17010000000000000E+04   1.18010000000000000E+04   1.19010000000000000E+04
             1.20010000000000000E+04   1.21010000000000000E+04   1.22010000000000000E+04   1.23010000000000000E+04   1.24010000000000000E+04
             1.25010000000000000E+04   1.26010000000000000E+04   1.27010000000000000E+04   1.28010000000000000E+04   1.29010000000000000E+04
             1.30010000000000000E+04   1.31010000000000000E+04   1.32010000000000000E+04   1.33010000000000000E+04   1.34010000000000000E+04
             1.35010000000000000E+04   1.36010000000000000E+04   1.37010000000000000E+04   1.38010000000000000E+04   1.39010000000000000E+04
             1.40010000000000000E+04   1.41010000000000000E+04   1.42010000000000000E+04   1.43010000000000000E+04   1.44010000000000000E+04
             1.45010000000000000E+04   1.46010000000000000E+04   1.47010000000000000E+04   1.48010000000000000E+04   1.49010000000000000E+04
 ETA=   16   1.00000000000000000E+00   1.01000000000000000E+02   2.01000000000000000E+02   3.01000000000000000E+02   4.01000000000000000E+02
             5.01000000000000000E+02   6.01000000000000000E+02   7.01000000000000000E+02   8.01000000000000000E+02   9.01000000000000000E+02
             1.00100000000000000E+03   1.10100000000000000E+03   1.20100000000000000E+03   1.30100000000000000E+03   1.40100000000000000E+03
             1.50100000000000000E+03   1.60100000000000000E+03   1.70100000000000000E+03   1.80100000000000000E+03   1.90100000000000000E+03
             2.00100000000000000E+03   2.10100000000000000E+03   2.20100000000000000E+03   2.30100000000000000E+03   2.40100000000000000E+03
             2.50100000000000000E+03   2.60100000000000000E+03   2.70100000000000000E+03   2.80100000000000000E+03   2.90100000000000000E+03
             3.00100000000000000E+03   3.10100000000000000E+03   3.20100000000000000E+03   3.30100000000000000E+03   3.40100000000000000E+03
             3.50100000000000000E+03   3.60100000000000000E+03   3.70100000000000000E+03   3.80100000000000000E+03   3.90100000000000000E+03
             4.00100000000000000E+03   4.10100000000000000E+03   4.20100000000000000E+03   4.30100000000000000E+03   4.40100000000000000E+03
             4.50100000000000000E+03   4.60100000000000000E+03   4.70100000000000000E+03   4.80100000000000000E+03   4.90100000000000000E+03
             5.00100000000000000E+03   5.10100000000000000E+03   5.20100000000000000E+03   5.30100000000000000E+03   5.40100000000000000E+03
             5.50100000000000000E+03   5.60100000000000000E+03   5.70100000000000000E+03   5.80100000000000000E+03   5.90100000000000000E+03
             6.00100000000000000E+03   6.10100000000000000E+03   6.20100000000000000E+03   6.30100000000000000E+03   6.40100000000000000E+03
             6.50100000000000000E+03   6.60100000000000000E+03   6.70100000000000000E+03   6.80100000000000000E+03   6.90100000000000000E+03
             7.00100000000000000E+03   7.10100000000000000E+03   7.20100000000000000E+03   7.30100000000000000E+03   7.40100000000000000E+03
             7.50100000000000000E+03   7.60100000000000000E+03   7.70100000000000000E+03   7.80100000000000000E+03   7.90100000000000000E+03
             8.00100000000000000E+03   8.10100000000000000E+03   8.20100000000000000E+03   8.30100000000000000E+03   8.40100000000000000E+03
             8.50100000000000000E+03   8.60100000000000000E+03   8.70100000000000000E+03   8.80100000000000000E+03   8.90100000000000000E+03
             9.00100000000000000E+03   9.10100000000000000E+03   9.20100000000000000E+03   9.30100000000000000E+03   9.40100000000000000E+03
             9.50100000000000000E+03   9.60100000000000000E+03   9.70100000000000000E+03   9.80100000000000000E+03   9.90100000000000000E+03
             1.00010000000000000E+04   1.01010000000000000E+04   1.02010000000000000E+04   1.03010000000000000E+04   1.04010000000000000E+04
             1.05010000000000000E+04   1.06010000000000000E+04   1.07010000000000000E+04   1.08010000000000000E+04   1.09010000000000000E+04
             1.10010000000000000E+04   1.11010000000000000E+04   1.12010000000000000E+04   1.13010000000000000E+04   1.14010000000000000E+04
             1.15010000000000000E+04   1.16010000000000000E+04   1.17010000000000000E+04   1.18010000000000000E+04   1.19010000000000000E+04
             1.20010000000000000E+04   1.21010000000000000E+04   1.22010000000000000E+04   1.23010000000000000E+04   1.24010000000000000E+04
             1.25010000000000000E+04   1.26010000000000000E+04   1.27010000000000000E+04   1.28010000000000000E+04   1.29010000000000000E+04
             1.30010000000000000E+04   1.31010000000000000E+04   1.32010000000000000E+04   1.33010000000000000E+04   1.34010000000000000E+04
             1.35010000000000000E+04   1.36010000000000000E+04   1.37010000000000000E+04   1.38010000000000000E+04   1.39010000000000000E+04
             1.40010000000000000E+04   1.41010000000000000E+04   1.42010000000000000E+04   1.43010000000000000E+04   1.44010000000000000E+04
             1.45010000000000000E+04   1.46010000000000000E+04   1.47010000000000000E+04   1.48010000000000000E+04   1.49010000000000000E+04
 ETA=   17   1.00000000000000000E+00   1.01000000000000000E+02   2.01000000000000000E+02   3.01000000000000000E+02   4.01000000000000000E+02
             5.01000000000000000E+02   6.01000000000000000E+02   7.01000000000000000E+02   8.01000000000000000E+02   9.01000000000000000E+02
             1.00100000000000000E+03   1.10100000000000000E+03   1.20100000000000000E+03   1.30100000000000000E+03   1.40100000000000000E+03
             1.50100000000000000E+03   1.60100000000000000E+03   1.70100000000000000E+03   1.80100000000000000E+03   1.90100000000000000E+03
             2.00100000000000000E+03   2.10100000000000000E+03   2.20100000000000000E+03   2.30100000000000000E+03   2.40100000000000000E+03
             2.50100000000000000E+03   2.60100000000000000E+03   2.70100000000000000E+03   2.80100000000000000E+03   2.90100000000000000E+03
             3.00100000000000000E+03   3.10100000000000000E+03   3.20100000000000000E+03   3.30100000000000000E+03   3.40100000000000000E+03
             3.50100000000000000E+03   3.60100000000000000E+03   3.70100000000000000E+03   3.80100000000000000E+03   3.90100000000000000E+03
             4.00100000000000000E+03   4.10100000000000000E+03   4.20100000000000000E+03   4.30100000000000000E+03   4.40100000000000000E+03
             4.50100000000000000E+03   4.60100000000000000E+03   4.70100000000000000E+03   4.80100000000000000E+03   4.90100000000000000E+03
             5.00100000000000000E+03   5.10100000000000000E+03   5.20100000000000000E+03   5.30100000000000000E+03   5.40100000000000000E+03
             5.50100000000000000E+03   5.60100000000000000E+03   5.70100000000000000E+03   5.80100000000000000E+03   5.90100000000000000E+03
             6.00100000000000000E+03   6.10100000000000000E+03   6.20100000000000000E+03   6.30100000000000000E+03   6.40100000000000000E+03
             6.50100000000000000E+03   6.60100000000000000E+03   6.70100000000000000E+03   6.80100000000000000E+03   6.90100000000000000E+03
             7.00100000000000000E+03   7.10100000000000000E+03   7.20100000000000000E+03   7.30100000000000000E+03   7.40100000000000000E+03
             7.50100000000000000E+03   7.60100000000000000E+03   7.70100000000000000E+03   7.80100000000000000E+03   7.90100000000000000E+03
             8.00100000000000000E+03   8.10100000000000000E+03   8.20100000000000000E+03   8.30100000000000000E+03   8.40100000000000000E+03
             8.50100000000000000E+03   8.60100000000000000E+03   8.70100000000000000E+03   8.80100000000000000E+03   8.90100000000000000E+03
             9.00100000000000000E+03   9.10100000000000000E+03   9.20100000000000000E+03   9.30100000000000000E+03   9.40100000000000000E+03
             9.50100000000000000E+03   9.60100000000000000E+03   9.70100000000000000E+03   9.80100000000000000E+03   9.90100000000000000E+03
             1.00010000000000000E+04   1.01010000000000000E+04   1.02010000000000000E+04   1.03010000000000000E+04   1.04010000000000000E+04
             1.05010000000000000E+04   1.06010000000000000E+04   1.07010000000000000E+04   1.08010000000000000E+04   1.09010000000000000E+04
             1.10010000000000000E+04   1.11010000000000000E+04   1.12010000000000000E+04   1.13010000000000000E+04   1.14010000000000000E+04
             1.15010000000000000E+04   1.16010000000000000E+04   1.17010000000000000E+04   1.18010000000000000E+04   1.19010000000000000E+04
             1.20010000000000000E+04   1.21010000000000000E+04   1.22010000000000000E+04   1.23010000000000000E+04   1.24010000000000000E+04
             1.25010000000000000E+04   1.26010000000000000E+04   1.27010000000000000E+04   1.28010000000000000E+04   1.29010000000000000E+04
             1.30010000000000000E+04   1.31010000000000000E+04   1.32010000000000000E+04   1.33010000000000000E+04   1.34010000000000000E+04
             1.35010000000000000E+04   1.36010000000000000E+04   1.37010000000000000E+04   1.38010000000000000E+04   1.39010000000000000E+04
             1.40010000000000000E+04   1.41010000000000000E+04   1.42010000000000000E+04   1.43010000000000000E+04   1.44010000000000000E+04
             1.45010000000000000E+04   1.46010000000000000E+04   1.47010000000000000E+04   1.48010000000000000E+04   1.49010000000000000E+04
 ETA=   18   1.00000000000000000E+00   1.01000000000000000E+02   2.01000000000000000E+02   3.01000000000000000E+02   4.01000000000000000E+02
             5.01000000000000000E+02   6.01000000000000000E+02   7.01000000000000000E+02   8.01000000000000000E+02   9.01000000000000000E+02
             1.00100000000000000E+03   1.10100000000000000E+03   1.20100000000000000E+03   1.30100000000000000E+03   1.40100000000000000E+03
             1.50100000000000000E+03   1.60100000000000000E+03   1.70100000000000000E+03   1.80100000000000000E+03   1.90100000000000000E+03
             2.00100000000000000E+03   2.10100000000000000E+03   2.20100000000000000E+03   2.30100000000000000E+03   2.40100000000000000E+03
             2.50100000000000000E+03   2.60100000000000000E+03   2.70100000000000000E+03   2.80100000000000000E+03   2.90100000000000000E+03
             3.00100000000000000E+03   3.10100000000000000E+03   3.20100000000000000E+03   3.30100000000000000E+03   3.40100000000000000E+03
             3.50100000000000000E+03   3.60100000000000000E+03   3.70100000000000000E+03   3.80100000000000000E+03   3.90100000000000000E+03
             4.00100000000000000E+03   4.10100000000000000E+03   4.20100000000000000E+03   4.30100000000000000E+03   4.40100000000000000E+03
             4.50100000000000000E+03   4.60100000000000000E+03   4.70100000000000000E+03   4.80100000000000000E+03   4.90100000000000000E+03
             5.00100000000000000E+03   5.10100000000000000E+03   5.20100000000000000E+03   5.30100000000000000E+03   5.40100000000000000E+03
             5.50100000000000000E+03   5.60100000000000000E+03   5.70100000000000000E+03   5.80100000000000000E+03   5.90100000000000000E+03
             6.00100000000000000E+03   6.10100000000000000E+03   6.20100000000000000E+03   6.30100000000000000E+03   6.40100000000000000E+03
             6.50100000000000000E+03   6.60100000000000000E+03   6.70100000000000000E+03   6.80100000000000000E+03   6.90100000000000000E+03
             7.00100000000000000E+03   7.10100000000000000E+03   7.20100000000000000E+03   7.30100000000000000E+03   7.40100000000000000E+03
             7.50100000000000000E+03   7.60100000000000000E+03   7.70100000000000000E+03   7.80100000000000000E+03   7.90100000000000000E+03
             8.00100000000000000E+03   8.10100000000000000E+03   8.20100000000000000E+03   8.30100000000000000E+03   8.40100000000000000E+03
             8.50100000000000000E+03   8.60100000000000000E+03   8.70100000000000000E+03   8.80100000000000000E+03   8.90100000000000000E+03
             9.00100000000000000E+03   9.10100000000000000E+03   9.20100000000000000E+03   9.30100000000000000E+03   9.40100000000000000E+03
             9.50100000000000000E+03   9.60100000000000000E+03   9.70100000000000000E+03   9.80100000000000000E+03   9.90100000000000000E+03
             1.00010000000000000E+04   1.01010000000000000E+04   1.02010000000000000E+04   1.03010000000000000E+04   1.04010000000000000E+04
             1.05010000000000000E+04   1.06010000000000000E+04   1.07010000000000000E+04   1.08010000000000000E+04   1.09010000000000000E+04
             1.10010000000000000E+04   1.11010000000000000E+04   1.12010000000000000E+04   1.13010000000000000E+04   1.14010000000000000E+04
             1.15010000000000000E+04   1.16010000000000000E+04   1.17010000000000000E+04   1.18010000000000000E+04   1.19010000000000000E+04
             1.20010000000000000E+04   1.21010000000000000E+04   1.22010000000000000E+04   1.23010000000000000E+04   1.24010000000000000E+04
             1.25010000000000000E+04   1.26010000000000000E+04   1.27010000000000000E+04   1.28010000000000000E+04   1.29010000000000000E+04
             1.30010000000000000E+04   1.31010000000000000E+04   1.32010000000000000E+04   1.33010000000000000E+04   1.34010000000000000E+04
             1.35010000000000000E+04   1.36010000000000000E+04   1.37010000000000000E+04   1.38010000000000000E+04   1.39010000000000000E+04
             1.40010000000000000E+04   1.41010000000000000E+04   1.42010000000000000E+04   1.43010000000000000E+04   1.44010000000000000E+04
             1.45010000000000000E+04   1.46010000000000000E+04   1.47010000000000000E+04   1.48010000000000000E+04   1.49010000000000000E+04
 ETA=   19   1.00000000000000000E+00   1.01000000000000000E+02   2.01000000000000000E+02   3.01000000000000000E+02   4.01000000000000000E+02
             5.01000000000000000E+02   6.01000000000000000E+02   7.01000000000000000E+02   8.01000000000000000E+02   9.01000000000000000E+02
             1.00100000000000000E+03   1.10100000000000000E+03   1.20100000000000000E+03   1.30100000000000000E+03   1.40100000000000000E+03
             1.50100000000000000E+03   1.60100000000000000E+03   1.70100000000000000E+03   1.80100000000000000E+03   1.90100000000000000E+03
             2.00100000000000000E+03   2.10100000000000000E+03   2.20100000000000000E+03   2.30100000000000000E+03   2.40100000000000000E+03
             2.50100000000000000E+03   2.60100000000000000E+03   2.70100000000000000E+03   2.80100000000000000E+03   2.90100000000000000E+03
             3.00100000000000000E+03   3.10100000000000000E+03   3.20100000000000000E+03   3.30100000000000000E+03   3.40100000000000000E+03
             3.50100000000000000E+03   3.60100000000000000E+03   3.70100000000000000E+03   3.80100000000000000E+03   3.90100000000000000E+03
             4.00100000000000000E+03   4.10100000000000000E+03   4.20100000000000000E+03   4.30100000000000000E+03   4.40100000000000000E+03
             4.50100000000000000E+03   4.60100000000000000E+03   4.70100000000000000E+03   4.80100000000000000E+03   4.90100000000000000E+03
             5.00100000000000000E+03   5.10100000000000000E+03   5.20100000000000000E+03   5.30100000000000000E+03   5.40100000000000000E+03
             5.50100000000000000E+03   5.60100000000000000E+03   5.70100000000000000E+03   5.80100000000000000E+03   5.90100000000000000E+03
             6.00100000000000000E+03   6.10100000000000000E+03   6.20100000000000000E+03   6.30100000000000000E+03   6.40100000000000000E+03
             6.50100000000000000E+03   6.60100000000000000E+03   6.70100000000000000E+03   6.80100000000000000E+03   6.90100000000000000E+03
             7.00100000000000000E+03   7.10100000000000000E+03   7.20100000000000000E+03   7.30100000000000000E+03   7.40100000000000000E+03
             7.50100000000000000E+03   7.60100000000000000E+03   7.70100000000000000E+03   7.80100000000000000E+03   7.90100000000000000E+03
             8.00100000000000000E+03   8.10100000000000000E+03   8.20100000000000000E+03   8.30100000000000000E+03   8.40100000000000000E+03
             8.50100000000000000E+03   8.60100000000000000E+03   8.70100000000000000E+03   8.80100000000000000E+03   8.90100000000000000E+03
             9.00100000000000000E+03   9.10100000000000000E+03   9.20100000000000000E+03   9.30100000000000000E+03   9.40100000000000000E+03
             9.50100000000000000E+03   9.60100000000000000E+03   9.70100000000000000E+03   9.80100000000000000E+03   9.90100000000000000E+03
             1.00010000000000000E+04   1.01010000000000000E+04   1.02010000000000000E+04   1.03010000000000000E+04   1.04010000000000000E+04
             1.05010000000000000E+04   1.06010000000000000E+04   1.07010000000000000E+04   1.08010000000000000E+04   1.09010000000000000E+04
[...]
             1.45010000000000000E+04   1.45010000000000000E+04   1.45010000000000000E+04   1.45010000000000000E+04   1.45010000000000000E+04
             1.45010000000000000E+04   1.45010000000000000E+04   1.45010000000000000E+04   1.45010000000000000E+04   1.45010000000000000E+04
             1.45010000000000000E+04   1.45010000000000000E+04   1.45010000000000000E+04   1.45010000000000000E+04   1.45010000000000000E+04
             1.45010000000000000E+04   1.45010000000000000E+04   1.45010000000000000E+04   1.45010000000000000E+04   1.45010000000000000E+04
             1.45010000000000000E+04   1.45010000000000000E+04   1.45010000000000000E+04   1.45010000000000000E+04   1.45010000000000000E+04
             1.45010000000000000E+04   1.45010000000000000E+04   1.45010000000000000E+04   1.45010000000000000E+04   1.45010000000000000E+04
             1.45010000000000000E+04   1.45010000000000000E+04   1.45010000000000000E+04   1.45010000000000000E+04   1.45010000000000000E+04
             1.45010000000000000E+04   1.45010000000000000E+04   1.45010000000000000E+04   1.45010000000000000E+04   1.45010000000000000E+04
             1.45010000000000000E+04   1.45010000000000000E+04   1.45010000000000000E+04   1.45010000000000000E+04   1.45010000000000000E+04
             1.45010000000000000E+04   1.45010000000000000E+04   1.45010000000000000E+04   1.45010000000000000E+04   1.45010000000000000E+04
             1.45010000000000000E+04   1.45010000000000000E+04   1.45010000000000000E+04   1.45010000000000000E+04   1.45010000000000000E+04
             1.45010000000000000E+04   1.45010000000000000E+04   1.45010000000000000E+04   1.45010000000000000E+04   1.45010000000000000E+04
             1.45010000000000000E+04   1.45010000000000000E+04   1.45010000000000000E+04   1.45010000000000000E+04   1.45010000000000000E+04
             1.45010000000000000E+04   1.45010000000000000E+04   1.45010000000000000E+04   1.45010000000000000E+04   1.45010000000000000E+04
             1.45010000000000000E+04   1.45010000000000000E+04   1.45010000000000000E+04   1.45010000000000000E+04   1.45010000000000000E+04
             1.45010000000000000E+04   1.45010000000000000E+04   1.45010000000000000E+04   1.45010000000000000E+04   1.45010000000000000E+04
             1.45010000000000000E+04   1.45010000000000000E+04   1.45010000000000000E+04   1.45010000000000000E+04   1.45010000000000000E+04
             1.45010000000000000E+04   1.45010000000000000E+04   1.45010000000000000E+04   1.45010000000000000E+04   1.45010000000000000E+04
             1.45010000000000000E+04   1.45010000000000000E+04   1.45010000000000000E+04   1.45010000000000000E+04   1.45010000000000000E+04
             1.45010000000000000E+04   1.45010000000000000E+04   1.45010000000000000E+04   1.45010000000000000E+04   1.45010000000000000E+04
 ETA=  147   1.46010000000000000E+04   1.46010000000000000E+04   1.46010000000000000E+04   1.46010000000000000E+04   1.46010000000000000E+04
             1.46010000000000000E+04   1.46010000000000000E+04   1.46010000000000000E+04   1.46010000000000000E+04   1.46010000000000000E+04
             1.46010000000000000E+04   1.46010000000000000E+04   1.46010000000000000E+04   1.46010000000000000E+04   1.46010000000000000E+04
             1.46010000000000000E+04   1.46010000000000000E+04   1.46010000000000000E+04   1.46010000000000000E+04   1.46010000000000000E+04
             1.46010000000000000E+04   1.46010000000000000E+04   1.46010000000000000E+04   1.46010000000000000E+04   1.46010000000000000E+04
             1.46010000000000000E+04   1.46010000000000000E+04   1.46010000000000000E+04   1.46010000000000000E+04   1.46010000000000000E+04
             1.46010000000000000E+04   1.46010000000000000E+04   1.46010000000000000E+04   1.46010000000000000E+04   1.46010000000000000E+04
             1.46010000000000000E+04   1.46010000000000000E+04   1.46010000000000000E+04   1.46010000000000000E+04   1.46010000000000000E+04
             1.46010000000000000E+04   1.46010000000000000E+04   1.46010000000000000E+04   1.46010000000000000E+04   1.46010000000000000E+04
             1.46010000000000000E+04   1.46010000000000000E+04   1.46010000000000000E+04   1.46010000000000000E+04   1.46010000000000000E+04
             1.46010000000000000E+04   1.46010000000000000E+04   1.46010000000000000E+04   1.46010000000000000E+04   1.46010000000000000E+04
             1.46010000000000000E+04   1.46010000000000000E+04   1.46010000000000000E+04   1.46010000000000000E+04   1.46010000000000000E+04
             1.46010000000000000E+04   1.46010000000000000E+04   1.46010000000000000E+04   1.46010000000000000E+04   1.46010000000000000E+04
             1.46010000000000000E+04   1.46010000000000000E+04   1.46010000000000000E+04   1.46010000000000000E+04   1.46010000000000000E+04
             1.46010000000000000E+04   1.46010000000000000E+04   1.46010000000000000E+04   1.46010000000000000E+04   1.46010000000000000E+04
             1.46010000000000000E+04   1.46010000000000000E+04   1.46010000000000000E+04   1.46010000000000000E+04   1.46010000000000000E+04
             1.46010000000000000E+04   1.46010000000000000E+04   1.46010000000000000E+04   1.46010000000000000E+04   1.46010000000000000E+04
             1.46010000000000000E+04   1.46010000000000000E+04   1.46010000000000000E+04   1.46010000000000000E+04   1.46010000000000000E+04
             1.46010000000000000E+04   1.46010000000000000E+04   1.46010000000000000E+04   1.46010000000000000E+04   1.46010000000000000E+04
             1.46010000000000000E+04   1.46010000000000000E+04   1.46010000000000000E+04   1.46010000000000000E+04   1.46010000000000000E+04
             1.46010000000000000E+04   1.46010000000000000E+04   1.46010000000000000E+04   1.46010000000000000E+04   1.46010000000000000E+04
             1.46010000000000000E+04   1.46010000000000000E+04   1.46010000000000000E+04   1.46010000000000000E+04   1.46010000000000000E+04
             1.46010000000000000E+04   1.46010000000000000E+04   1.46010000000000000E+04   1.46010000000000000E+04   1.46010000000000000E+04
             1.46010000000000000E+04   1.46010000000000000E+04   1.46010000000000000E+04   1.46010000000000000E+04   1.46010000000000000E+04
             1.46010000000000000E+04   1.46010000000000000E+04   1.46010000000000000E+04   1.46010000000000000E+04   1.46010000000000000E+04
             1.46010000000000000E+04   1.46010000000000000E+04   1.46010000000000000E+04   1.46010000000000000E+04   1.46010000000000000E+04
             1.46010000000000000E+04   1.46010000000000000E+04   1.46010000000000000E+04   1.46010000000000000E+04   1.46010000000000000E+04
             1.46010000000000000E+04   1.46010000000000000E+04   1.46010000000000000E+04   1.46010000000000000E+04   1.46010000000000000E+04
             1.46010000000000000E+04   1.46010000000000000E+04   1.46010000000000000E+04   1.46010000000000000E+04   1.46010000000000000E+04
             1.46010000000000000E+04   1.46010000000000000E+04   1.46010000000000000E+04   1.46010000000000000E+04   1.46010000000000000E+04
 ETA=  148   1.47010000000000000E+04   1.47010000000000000E+04   1.47010000000000000E+04   1.47010000000000000E+04   1.47010000000000000E+04
             1.47010000000000000E+04   1.47010000000000000E+04   1.47010000000000000E+04   1.47010000000000000E+04   1.47010000000000000E+04
             1.47010000000000000E+04   1.47010000000000000E+04   1.47010000000000000E+04   1.47010000000000000E+04   1.47010000000000000E+04
             1.47010000000000000E+04   1.47010000000000000E+04   1.47010000000000000E+04   1.47010000000000000E+04   1.47010000000000000E+04
             1.47010000000000000E+04   1.47010000000000000E+04   1.47010000000000000E+04   1.47010000000000000E+04   1.47010000000000000E+04
             1.47010000000000000E+04   1.47010000000000000E+04   1.47010000000000000E+04   1.47010000000000000E+04   1.47010000000000000E+04
             1.47010000000000000E+04   1.47010000000000000E+04   1.47010000000000000E+04   1.47010000000000000E+04   1.47010000000000000E+04
             1.47010000000000000E+04   1.47010000000000000E+04   1.47010000000000000E+04   1.47010000000000000E+04   1.47010000000000000E+04
             1.47010000000000000E+04   1.47010000000000000E+04   1.47010000000000000E+04   1.47010000000000000E+04   1.47010000000000000E+04
             1.47010000000000000E+04   1.47010000000000000E+04   1.47010000000000000E+04   1.47010000000000000E+04   1.47010000000000000E+04
             1.47010000000000000E+04   1.47010000000000000E+04   1.47010000000000000E+04   1.47010000000000000E+04   1.47010000000000000E+04
             1.47010000000000000E+04   1.47010000000000000E+04   1.47010000000000000E+04   1.47010000000000000E+04   1.47010000000000000E+04
             1.47010000000000000E+04   1.47010000000000000E+04   1.47010000000000000E+04   1.47010000000000000E+04   1.47010000000000000E+04
             1.47010000000000000E+04   1.47010000000000000E+04   1.47010000000000000E+04   1.47010000000000000E+04   1.47010000000000000E+04
             1.47010000000000000E+04   1.47010000000000000E+04   1.47010000000000000E+04   1.47010000000000000E+04   1.47010000000000000E+04
             1.47010000000000000E+04   1.47010000000000000E+04   1.47010000000000000E+04   1.47010000000000000E+04   1.47010000000000000E+04
             1.47010000000000000E+04   1.47010000000000000E+04   1.47010000000000000E+04   1.47010000000000000E+04   1.47010000000000000E+04
             1.47010000000000000E+04   1.47010000000000000E+04   1.47010000000000000E+04   1.47010000000000000E+04   1.47010000000000000E+04
             1.47010000000000000E+04   1.47010000000000000E+04   1.47010000000000000E+04   1.47010000000000000E+04   1.47010000000000000E+04
             1.47010000000000000E+04   1.47010000000000000E+04   1.47010000000000000E+04   1.47010000000000000E+04   1.47010000000000000E+04
             1.47010000000000000E+04   1.47010000000000000E+04   1.47010000000000000E+04   1.47010000000000000E+04   1.47010000000000000E+04
             1.47010000000000000E+04   1.47010000000000000E+04   1.47010000000000000E+04   1.47010000000000000E+04   1.47010000000000000E+04
             1.47010000000000000E+04   1.47010000000000000E+04   1.47010000000000000E+04   1.47010000000000000E+04   1.47010000000000000E+04
             1.47010000000000000E+04   1.47010000000000000E+04   1.47010000000000000E+04   1.47010000000000000E+04   1.47010000000000000E+04
             1.47010000000000000E+04   1.47010000000000000E+04   1.47010000000000000E+04   1.47010000000000000E+04   1.47010000000000000E+04
             1.47010000000000000E+04   1.47010000000000000E+04   1.47010000000000000E+04   1.47010000000000000E+04   1.47010000000000000E+04
             1.47010000000000000E+04   1.47010000000000000E+04   1.47010000000000000E+04   1.47010000000000000E+04   1.47010000000000000E+04
             1.47010000000000000E+04   1.47010000000000000E+04   1.47010000000000000E+04   1.47010000000000000E+04   1.47010000000000000E+04
             1.47010000000000000E+04   1.47010000000000000E+04   1.47010000000000000E+04   1.47010000000000000E+04   1.47010000000000000E+04
             1.47010000000000000E+04   1.47010000000000000E+04   1.47010000000000000E+04   1.47010000000000000E+04   1.47010000000000000E+04
 ETA=  149   1.48010000000000000E+04   1.48010000000000000E+04   1.48010000000000000E+04   1.48010000000000000E+04   1.48010000000000000E+04
             1.48010000000000000E+04   1.48010000000000000E+04   1.48010000000000000E+04   1.48010000000000000E+04   1.48010000000000000E+04
             1.48010000000000000E+04   1.48010000000000000E+04   1.48010000000000000E+04   1.48010000000000000E+04   1.48010000000000000E+04
             1.48010000000000000E+04   1.48010000000000000E+04   1.48010000000000000E+04   1.48010000000000000E+04   1.48010000000000000E+04
             1.48010000000000000E+04   1.48010000000000000E+04   1.48010000000000000E+04   1.48010000000000000E+04   1.48010000000000000E+04
             1.48010000000000000E+04   1.48010000000000000E+04   1.48010000000000000E+04   1.48010000000000000E+04   1.48010000000000000E+04
             1.48010000000000000E+04   1.48010000000000000E+04   1.48010000000000000E+04   1.48010000000000000E+04   1.48010000000000000E+04
             1.48010000000000000E+04   1.48010000000000000E+04   1.48010000000000000E+04   1.48010000000000000E+04   1.48010000000000000E+04
             1.48010000000000000E+04   1.48010000000000000E+04   1.48010000000000000E+04   1.48010000000000000E+04   1.48010000000000000E+04
             1.48010000000000000E+04   1.48010000000000000E+04   1.48010000000000000E+04   1.48010000000000000E+04   1.48010000000000000E+04
             1.48010000000000000E+04   1.48010000000000000E+04   1.48010000000000000E+04   1.48010000000000000E+04   1.48010000000000000E+04
             1.48010000000000000E+04   1.48010000000000000E+04   1.48010000000000000E+04   1.48010000000000000E+04   1.48010000000000000E+04
             1.48010000000000000E+04   1.48010000000000000E+04   1.48010000000000000E+04   1.48010000000000000E+04   1.48010000000000000E+04
             1.48010000000000000E+04   1.48010000000000000E+04   1.48010000000000000E+04   1.48010000000000000E+04   1.48010000000000000E+04
             1.48010000000000000E+04   1.48010000000000000E+04   1.48010000000000000E+04   1.48010000000000000E+04   1.48010000000000000E+04
             1.48010000000000000E+04   1.48010000000000000E+04   1.48010000000000000E+04   1.48010000000000000E+04   1.48010000000000000E+04
             1.48010000000000000E+04   1.48010000000000000E+04   1.48010000000000000E+04   1.48010000000000000E+04   1.48010000000000000E+04
             1.48010000000000000E+04   1.48010000000000000E+04   1.48010000000000000E+04   1.48010000000000000E+04   1.48010000000000000E+04
             1.48010000000000000E+04   1.48010000000000000E+04   1.48010000000000000E+04   1.48010000000000000E+04   1.48010000000000000E+04
             1.48010000000000000E+04   1.48010000000000000E+04   1.48010000000000000E+04   1.48010000000000000E+04   1.48010000000000000E+04
             1.48010000000000000E+04   1.48010000000000000E+04   1.48010000000000000E+04   1.48010000000000000E+04   1.48010000000000000E+04
             1.48010000000000000E+04   1.48010000000000000E+04   1.48010000000000000E+04   1.48010000000000000E+04   1.48010000000000000E+04
             1.48010000000000000E+04   1.48010000000000000E+04   1.48010000000000000E+04   1.48010000000000000E+04   1.48010000000000000E+04
             1.48010000000000000E+04   1.48010000000000000E+04   1.48010000000000000E+04   1.48010000000000000E+04   1.48010000000000000E+04
             1.48010000000000000E+04   1.48010000000000000E+04   1.48010000000000000E+04   1.48010000000000000E+04   1.48010000000000000E+04
             1.48010000000000000E+04   1.48010000000000000E+04   1.48010000000000000E+04   1.48010000000000000E+04   1.48010000000000000E+04
             1.48010000000000000E+04   1.48010000000000000E+04   1.48010000000000000E+04   1.48010000000000000E+04   1.48010000000000000E+04
             1.48010000000000000E+04   1.48010000000000000E+04   1.48010000000000000E+04   1.48010000000000000E+04   1.48010000000000000E+04
             1.48010000000000000E+04   1.48010000000000000E+04   1.48010000000000000E+04   1.48010000000000000E+04   1.48010000000000000E+04
             1.48010000000000000E+04   1.48010000000000000E+04   1.48010000000000000E+04   1.48010000000000000E+04   1.48010000000000000E+04
 ETA=  150   1.49010000000000000E+04   1.49010000000000000E+04   1.49010000000000000E+04   1.49010000000000000E+04   1.49010000000000000E+04
             1.49010000000000000E+04   1.49010000000000000E+04   1.49010000000000000E+04   1.49010000000000000E+04   1.49010000000000000E+04
             1.49010000000000000E+04   1.49010000000000000E+04   1.49010000000000000E+04   1.49010000000000000E+04   1.49010000000000000E+04
             1.49010000000000000E+04   1.49010000000000000E+04   1.49010000000000000E+04   1.49010000000000000E+04   1.49010000000000000E+04
             1.49010000000000000E+04   1.49010000000000000E+04   1.49010000000000000E+04   1.49010000000000000E+04   1.49010000000000000E+04
             1.49010000000000000E+04   1.49010000000000000E+04   1.49010000000000000E+04   1.49010000000000000E+04   1.49010000000000000E+04
             1.49010000000000000E+04   1.49010000000000000E+04   1.49010000000000000E+04   1.49010000000000000E+04   1.49010000000000000E+04
             1.49010000000000000E+04   1.49010000000000000E+04   1.49010000000000000E+04   1.49010000000000000E+04   1.49010000000000000E+04
             1.49010000000000000E+04   1.49010000000000000E+04   1.49010000000000000E+04   1.49010000000000000E+04   1.49010000000000000E+04
             1.49010000000000000E+04   1.49010000000000000E+04   1.49010000000000000E+04   1.49010000000000000E+04   1.49010000000000000E+04
             1.49010000000000000E+04   1.49010000000000000E+04   1.49010000000000000E+04   1.49010000000000000E+04   1.49010000000000000E+04
             1.49010000000000000E+04   1.49010000000000000E+04   1.49010000000000000E+04   1.49010000000000000E+04   1.49010000000000000E+04
             1.49010000000000000E+04   1.49010000000000000E+04   1.49010000000000000E+04   1.49010000000000000E+04   1.49010000000000000E+04
             1.49010000000000000E+04   1.49010000000000000E+04   1.49010000000000000E+04   1.49010000000000000E+04   1.49010000000000000E+04
             1.49010000000000000E+04   1.49010000000000000E+04   1.49010000000000000E+04   1.49010000000000000E+04   1.49010000000000000E+04
             1.49010000000000000E+04   1.49010000000000000E+04   1.49010000000000000E+04   1.49010000000000000E+04   1.49010000000000000E+04
             1.49010000000000000E+04   1.49010000000000000E+04   1.49010000000000000E+04   1.49010000000000000E+04   1.49010000000000000E+04
             1.49010000000000000E+04   1.49010000000000000E+04   1.49010000000000000E+04   1.49010000000000000E+04   1.49010000000000000E+04
             1.49010000000000000E+04   1.49010000000000000E+04   1.49010000000000000E+04   1.49010000000000000E+04   1.49010000000000000E+04
             1.49010000000000000E+04   1.49010000000000000E+04   1.49010000000000000E+04   1.49010000000000000E+04   1.49010000000000000E+04
             1.49010000000000000E+04   1.49010000000000000E+04   1.49010000000000000E+04   1.49010000000000000E+04   1.49010000000000000E+04
             1.49010000000000000E+04   1.49010000000000000E+04   1.49010000000000000E+04   1.49010000000000000E+04   1.49010000000000000E+04
             1.49010000000000000E+04   1.49010000000000000E+04   1.49010000000000000E+04   1.49010000000000000E+04   1.49010000000000000E+04
             1.49010000000000000E+04   1.49010000000000000E+04   1.49010000000000000E+04   1.49010000000000000E+04   1.49010000000000000E+04
             1.49010000000000000E+04   1.49010000000000000E+04   1.49010000000000000E+04   1.49010000000000000E+04   1.49010000000000000E+04
             1.49010000000000000E+04   1.49010000000000000E+04   1.49010000000000000E+04   1.49010000000000000E+04   1.49010000000000000E+04
             1.49010000000000000E+04   1.49010000000000000E+04   1.49010000000000000E+04   1.49010000000000000E+04   1.49010000000000000E+04
             1.49010000000000000E+04   1.49010000000000000E+04   1.49010000000000000E+04   1.49010000000000000E+04   1.49010000000000000E+04
             1.49010000000000000E+04   1.49010000000000000E+04   1.49010000000000000E+04   1.49010000000000000E+04   1.49010000000000000E+04
             1.49010000000000000E+04   1.49010000000000000E+04   1.49010000000000000E+04   1.49010000000000000E+04   1.49010000000000000E+04
