Ident = #Delft3D-FLOW  .03.02 3.41.06.10981#
Commnt=                              
Runtxt= #Test model floating airport   #
Filcco= #rot.grd#
Fmtcco= #FR#
Anglat=  0.0000000e+000
Grdang=  0.0000000e+000
Filgrd= #rot.enc#
Fmtgrd= #FR#
MNKmax= 22 22 10
Thick =  1.0000000e+001
         1.0000000e+001
         1.0000000e+001
         1.0000000e+001
         1.0000000e+001
         1.0000000e+001
         1.0000000e+001
         1.0000000e+001
         1.0000000e+001
         1.0000000e+001
Commnt=                              
Depuni=  1.0000000e+001
Commnt=                              
Commnt=                              no. dry points: 0
Commnt=                              no. thin dams: 0
Commnt=                              
Itdate= #2001-03-15#
Tunit = #M#
Tstart=  0.0000000e+000
Tstop =  2.5000000e+002
Dt    = 5
Tzone = 0
Commnt=                              
Sub1  = # TW #
Sub2  = #   #
Commnt=                              
Wnsvwp= #N#
Filwnd= #rot.wnd#
Fmtwnd= #FR#
Wndint= #Y#
Commnt=                              
Zeta0 =  0.0000000e+000
U0    = [.]
V0    = [.]
S0    = [.]
T0    =  1.5000000e+001
         1.5000000e+001
         1.5000000e+001
         1.5000000e+001
         1.5000000e+001
         1.5000000e+001
         1.5000000e+001
         1.5000000e+001
         1.5000000e+001
         1.5000000e+001
Commnt=                              
Commnt=                              no. open boundaries: 0
Commnt=                              
Ag    =  9.8100000e+000
Rhow  =  1.0000000e+003
Alph0 = [.]
Tempw =  1.5000000e+001
Salw  =  3.1000000e+001
Rouwav= #    #
Wstres=  6.3000000e-004  0.0000000e+000  7.2300000e-003  1.0000000e+002
Rhoa  =  1.0000000e+000
Betac =  5.0000000e-001
Equili= #N#
Tkemod= #K-epsilon   #
Ktemp = 2
Fclou =  1.0000000e+001
Sarea =  1.0000000e+006
Secchi=  2.0000000e+000
Stantn=  1.3000000e-003
Dalton=  1.3000000e-003
Filtmp= #fei.tem#
Fmttmp= #FR#
Temint= #Y#
Commnt=                              
Roumet= #C#
Ccofu =  4.5000000e+001
Ccofv =  4.5000000e+001
Xlo   =  0.0000000e+000
Vicouv=  1.0000000e+001
Dicouv=  1.0000000e+001
Htur2d= #N#
Vicoww=  1.0000000e-006
Dicoww=  1.0000000e-006
Irov  = 0
Commnt=                              
Iter  =      2
Dryflp= #YES#
Dpsopt= #MAX#
Dpuopt= #MIN#
Dryflc=  1.0000000e-001
Dco   = -9.9900000e+002
Tlfsmo=  6.0000000e+001
ThetQH=  0.0000000e+000
Forfuv= #Y#
Forfww= #N#
Sigcor= #Y#
Trasol= #Cyclic-method#
Momsol= #Cyclic#
Commnt=                              
Commnt=                              no. discharges: 0
Commnt=                              no. observation points: 9
Filsta= #rot.obs#
Fmtsta= #FR#
Commnt=                              no. drogues: 0
Commnt=                              
Commnt=                              
Commnt=                              no. cross sections: 0
Commnt=                              
SMhydr= #YYYYY#     
SMderv= #YYYYYY#    
SMproc= #YYYYYYYYYY#
PMhydr= #YYYYYY#    
PMderv= #YYY#       
PMproc= #YYYYYYYYYY#
SHhydr= #YYYY#      
SHderv= #YYYYY#     
SHproc= #YYYYYYYYYY#
SHflux= #YYYY#      
PHhydr= #YYYYYY#    
PHderv= #YYY#       
PHproc= #YYYYYYYYYY#
PHflux= #YYYY#      
Online= #N#
Prhis =  0.0000000e+000 0  0.0000000e+000
Flmap =  0.0000000e+000 250  2.0000000e+004
Flhis =  0.0000000e+000 10  2.5000000e+002
Flpp  =  0.0000000e+000 0  0.0000000e+000
Flrst = 0
Commnt=                              
Filfls= #rot.fls#
Evamas= #Y#
Commnt=                              
